Pcrystal executable in: /home/erba/Ambrogio/SVN_PUB_1335/bin/Linux_ifort_openmpi_i64_clut_new/mkl/Pcrystal
Master system: Linux node85 4.19.0-8-amd64 #1 SMP Debian 4.19.98-1 (2020-01-26) x86_64 GNU/Linux
================================================================================
Module loading
================================================================================
module load compiler/2021.4.0
Loading compiler version 2021.4.0
Loading tbb version 2021.6.0
Loading compiler-rt version 2022.1.0
Loading debugger version 2021.6.0
Loading dpl version 2021.7.0
Loading oclfpga version 2022.1.0

Loading compiler/2021.4.0
  Loading requirement: tbb/latest compiler-rt/latest debugger/latest dpl/latest
    oclfpga/latest

module load mkl/2021.4.0
Loading mkl version 2021.4.0

module load openmpi/4.1.1-i21.4
================================================================================
Starting Pcrystal SLURM job
================================================================================
Time: Wed 04 Sep 2024 10:16:38 AM CEST
SLURM job ID: 472295
Master hostname: node85
User: erba
mpirun executable in: /opt/openmpi-4.1.1-i21.4/bin/mpirun
Input file: zif8_b3lyp_P_8p.d12
Output file: /home/erba/Ambrogio/MSSC2024/P-MPP/zif8_b3lyp_P_8p.out
Number of processors: 8
Nodes list: node85
================================================================================
Creating temporary directory /scratch/tmp_p487_erba on each node...
Copying input file zif8_b3lyp_P_8p.d12 on each node...
Copying Pcrystal on each node...
================================================================================
Contents of input file:
ZIF-8
CRYSTAL
0 0 0
197
16.94148800
12
1      1.081528526556E-01 -3.450080126162E-01  2.234626278711E-01
1      2.242141357135E-01 -3.450445584298E-01  1.082629340005E-01
1      5.422551473683E-02  4.164783063562E-01  5.289971870179E-02
1      1.501303392889E-01  3.819851548667E-01  7.538886998623E-02
1      7.587826048348E-02  3.817818404958E-01  1.492552692018E-01
30   -5.000000000000E-01  0.000000000000E+00 -2.505614587291E-01
6      1.236496572231E-01  4.961496370084E-01  1.230624678632E-01
6      1.257639241515E-01 -3.905899423537E-01  1.824476519917E-01
6      9.960595713576E-02  4.146378986853E-01  9.887414978299E-02
7      8.877102100184E-02 -4.628132894226E-01  1.809884698279E-01
6      1.830626459009E-01 -3.906137408985E-01  1.255871073985E-01
7      1.818670800922E-01 -4.628558735411E-01  8.861999400759E-02
SUPERCON
1 0 0
0 1 0
0 0 1
SYMMREMO
END
1 2
0 0 3 1 1.0
     18.735410440000       0.019682158000
      2.825650400000       0.137965240000
      0.640134700000       0.478319350000
0 0 1 0 1.0
      0.175607460000       1.000000000000
6 7
0 0 5 2 1.0
   3623.861300000000       0.001633919100
    544.046210000000       0.012521701000
    123.743380000000       0.062113914000
     34.763209000000       0.218177290000
     10.933333000000       0.498004310000
0 0 1 2 1.0
      3.574476500000       1.000000000000
0 0 1 0 1.0
      0.774154       1.000000000000
0 0 1 0 1.0
      0.233036       1.000000000000
0 2 3 2 1.0
      9.443281900000       0.037895451000
      2.001798600000       0.208181770000
      0.546297180000       0.504741660000
0 2 1 0 1.0
      0.182027       1.000000000000
0 3 1 0 1.0
      0.888000       1.000000000000
7 7
0 0 5 2 1.0
   5071.989200000000       0.001706723800
    761.417910000000       0.013087696000
    173.184180000000       0.065098252000
     48.670390000000       0.230516030000
     15.331448000000       0.533004740000
0 0 1 2 1.0
      5.018671000000       1.000000000000
0 0 1 0 1.0
      0.835547720000       1.000000000000
0 0 1 0 1.0
      0.246268140000       1.000000000000
0 2 3 3 1.0
     13.550722000000       0.040630840000
      2.917868200000       0.220857990000
      0.798312520000       0.518601420000
0 2 1 0 1.0
      0.219001250000       1.000000000000
0 3 1 0 1.0
      0.800000000000       1.000000000000
30 11
0 0 6 2 1.0
  82000.711628999998       0.001421076400
  12312.471777000001       0.010891499487
   2801.394419300000       0.054057188059
    790.994243020000       0.188474639040
    257.565510790000       0.383465493460
     88.814933400000       0.297237941970
0 0 3 2 1.0
    171.863537160000      -0.110518495230
     20.302534785000       0.646077169840
      8.346412306800       0.442201173220
0 0 3 2 1.0
     14.847536940000      -0.227053092780
      2.449502950700       0.724332179350
      0.998458218240       0.448364955920
0 0 1 2 1.0
      0.371935       1.000000000000
0 0 1 0 1.0
      0.132297       1.000000000000
0 2 5 6 1.0
   1071.518537200000       0.009276779724
    252.697121520000       0.069541149434
     80.100829126000       0.271567725640
     28.903393172000       0.534013555730
     10.768899879000       0.345013234460
0 2 3 6 1.0
      5.644621253000       0.341296001640
      2.167829134700       0.563905219730
      0.805408983410       0.236761097350
0 3 4 10 1.0
     56.088939191000       0.029588869140
     15.751908917000       0.158725714040
      5.311581236700       0.379762291590
      1.773790491700       0.468989591720
0 3 1 0 1.0
      0.573031       0.309071490780
0 2 1 0 1.0
      0.212455       1.000000000000
0 4 1 0 1.0
      2.881935       1.000000000000
99 0
END
DFT
B3LYP
ENDDFT
EXCHSIZE
9115740
SHRINK
3 3
FMIXING
30
TOLDEE
7
NODIIS
MAXCYCLE
1
END
================================================================================
Time: Wed 04 Sep 2024 10:16:39 AM CEST
Starting Pcrystal job in /scratch/tmp_p487_erba on each node...
================================================================================
[node85:00622] MCW rank 0 bound to socket 0[core 0[hwt 0]], socket 0[core 1[hwt 0]], socket 0[core 2[hwt 0]], socket 0[core 3[hwt 0]], socket 0[core 4[hwt 0]], socket 0[core 5[hwt 0]], socket 0[core 6[hwt 0]], socket 0[core 7[hwt 0]], socket 0[core 8[hwt 0]], socket 0[core 9[hwt 0]]: [B/B/B/B/B/B/B/B/B/B][./././././././././.]
[node85:00622] MCW rank 1 bound to socket 1[core 10[hwt 0]], socket 1[core 11[hwt 0]], socket 1[core 12[hwt 0]], socket 1[core 13[hwt 0]], socket 1[core 14[hwt 0]], socket 1[core 15[hwt 0]], socket 1[core 16[hwt 0]], socket 1[core 17[hwt 0]], socket 1[core 18[hwt 0]], socket 1[core 19[hwt 0]]: [./././././././././.][B/B/B/B/B/B/B/B/B/B]
[node85:00622] MCW rank 2 bound to socket 0[core 0[hwt 0]], socket 0[core 1[hwt 0]], socket 0[core 2[hwt 0]], socket 0[core 3[hwt 0]], socket 0[core 4[hwt 0]], socket 0[core 5[hwt 0]], socket 0[core 6[hwt 0]], socket 0[core 7[hwt 0]], socket 0[core 8[hwt 0]], socket 0[core 9[hwt 0]]: [B/B/B/B/B/B/B/B/B/B][./././././././././.]
[node85:00622] MCW rank 3 bound to socket 1[core 10[hwt 0]], socket 1[core 11[hwt 0]], socket 1[core 12[hwt 0]], socket 1[core 13[hwt 0]], socket 1[core 14[hwt 0]], socket 1[core 15[hwt 0]], socket 1[core 16[hwt 0]], socket 1[core 17[hwt 0]], socket 1[core 18[hwt 0]], socket 1[core 19[hwt 0]]: [./././././././././.][B/B/B/B/B/B/B/B/B/B]
[node85:00622] MCW rank 4 bound to socket 0[core 0[hwt 0]], socket 0[core 1[hwt 0]], socket 0[core 2[hwt 0]], socket 0[core 3[hwt 0]], socket 0[core 4[hwt 0]], socket 0[core 5[hwt 0]], socket 0[core 6[hwt 0]], socket 0[core 7[hwt 0]], socket 0[core 8[hwt 0]], socket 0[core 9[hwt 0]]: [B/B/B/B/B/B/B/B/B/B][./././././././././.]
[node85:00622] MCW rank 5 bound to socket 1[core 10[hwt 0]], socket 1[core 11[hwt 0]], socket 1[core 12[hwt 0]], socket 1[core 13[hwt 0]], socket 1[core 14[hwt 0]], socket 1[core 15[hwt 0]], socket 1[core 16[hwt 0]], socket 1[core 17[hwt 0]], socket 1[core 18[hwt 0]], socket 1[core 19[hwt 0]]: [./././././././././.][B/B/B/B/B/B/B/B/B/B]
[node85:00622] MCW rank 6 bound to socket 0[core 0[hwt 0]], socket 0[core 1[hwt 0]], socket 0[core 2[hwt 0]], socket 0[core 3[hwt 0]], socket 0[core 4[hwt 0]], socket 0[core 5[hwt 0]], socket 0[core 6[hwt 0]], socket 0[core 7[hwt 0]], socket 0[core 8[hwt 0]], socket 0[core 9[hwt 0]]: [B/B/B/B/B/B/B/B/B/B][./././././././././.]
[node85:00622] MCW rank 7 bound to socket 1[core 10[hwt 0]], socket 1[core 11[hwt 0]], socket 1[core 12[hwt 0]], socket 1[core 13[hwt 0]], socket 1[core 14[hwt 0]], socket 1[core 15[hwt 0]], socket 1[core 16[hwt 0]], socket 1[core 17[hwt 0]], socket 1[core 18[hwt 0]], socket 1[core 19[hwt 0]]: [./././././././././.][B/B/B/B/B/B/B/B/B/B]
 PROCESS            3  OF            8  WORKING
 PROCESS            4  OF            8  WORKING
 PROCESS            5  OF            8  WORKING
 PROCESS            0  OF            8  WORKING
 PROCESS            6  OF            8  WORKING
 PROCESS            1  OF            8  WORKING
 PROCESS            2  OF            8  WORKING
 PROCESS            7  OF            8  WORKING
 Default number of threads is:            1

         
 *******************************************************************************
 *                                                                             *
 *                               CRYSTAL23                                     *
 *                      public : 1.0.1 - October 2022                          *
 *                       HTTP://WWW.CRYSTAL.UNITO.IT                           *
 *                                                                             *
 *                              MAIN AUTHORS                                   *
 *                                                                             *
 *  R. DOVESI(1,11), V.R. SAUNDERS(2), C. ROETTI(1,11), R. ORLANDO(1,11),      *
 *  C.M. ZICOVICH-WILSON(1,3), F. PASCALE(4), B. CIVALLERI(1,11),              *
 *  K. DOLL(5), N.M. HARRISON(6), I.J. BUSH(7), Ph. D'ARCO(8),                 *
 *  M. LLUNELL(9), M. CAUSA'(10), Y. NOEL(8), L. MASCHIO(1,11), A. ERBA(1,11)  *
 *  M. RE'RAT(14), S. CASASSA(1,11), B.G. SEARLE(2), J.K. DESMARAIS(1)         *
 *                                                                             *
 *        CONTRIBUTIONS TO THE CODE HAVE ALSO BEEN GIVEN BY                    *
 *                                                                             *
 *  M. FERRABONE(1,11), M. DE LA PIERRE(1,11), M. FERRERO(1,11),               *
 *  J. BAIMA(1,11), E. ALBANESE(1,11), M.F. PEINTINGER(12), R. BAST(13),       *
 *  B. KIRTMAN(15), V. LACIVITA(1,11), R. DEMICHELIS(1,16)                     *
 *  G. BRANDEBURG(17), S. SALUSTRO(1,11), G. SANSONE(1,11)                     *
 *  M.T. RUGGIERO(18), L.E. DAGA(1), L. DONA'(1), A. COSSARD(1)                *
 *                                                                             *
 * (1) THEORETICAL CHEMISTRY GROUP - UNIVERSITA' DI TORINO - TORINO (ITALY)    *
 * (2) SCIENTIFIC COMPUTING DEPARTMENT - STFC DARESBURY (UK)                   *
 * (3) UNIVERSIDAD AUTONOMA DEL ESTADO DE MORELOS - CUERNAVACA (MEXICO)        *
 * (4) UNIVERSITE' DE LORRAINE - NANCY (FRANCE)                                *
 * (5) UNIVERSITAET STUTTGART- STUTTGART (GERMANY)                             *
 * (6) IMPERIAL COLLEGE - LONDON (UK)                                          *
 * (7) SCIENTIFIC COMPUTING DEPARTMENT - STFC RAL (UK)                         *
 * (8) UPMC - SORBONNE UNIVERSITES - PARIS (FRANCE)                            *
 * (9) UNIVERSIDAD DE BARCELONA - BARCELONA (SPAIN)                            *
 *(10) UNIVERSITA' DI NAPOLI "FEDERICO II" - NAPOLI (ITALY)                    *
 *(11) NIS - NANOSTRUCTURED INTERFACES AND SURFACES - TORINO (ITALY)           *
 *(12) MPI FUER CHEMISCHE ENERGIEKONVERSION - MUELHEIM AN DER RUHR (GERMANY)   *
 *(13) UNIVERSITY OF TROMSO - TROMSO (NORWAY)                                  *
 *(14) UNIVERSITE' DE PAU ET DES PAYS DE L'ADOUR - PAU (FRANCE)                *
 *(15) UNIVERSITY OF CALIFORNIA SANTA BARBARA - SANTA BARBARA (USA)            *
 *(16) CURTIN UNIVERSITY - PERTH (AUSTRALIA)                                   *
 *(17) UNIVERSITY COLLEGE LONDON - LONDON (UK)                                 *
 *(18) UNIVERSITY OF VERMONT - BURLINGTON (USA)                                *
 *                                                                             *
 *******************************************************************************
 EEEEEEEEEE STARTING  DATE 04 09 2024 TIME 10:16:40.0
 ZIF-8                                                                           

 CRYSTAL CALCULATION
 (INPUT ACCORDING TO THE INTERNATIONAL TABLES FOR X-RAY CRYSTALLOGRAPHY)
 CRYSTAL FAMILY                       :  CUBIC       
 CRYSTAL CLASS  (GROTH - 1921)        :  CUBIC TETRAHEDRAL-PENTAGONALDODECAHED

 SPACE GROUP (NONCENTROSYMMETRIC)     :  I 2 3           

 LATTICE PARAMETERS  (ANGSTROMS AND DEGREES) - CONVENTIONAL CELL
        A           B           C        ALPHA        BETA       GAMMA
    16.94149    16.94149    16.94149    90.00000    90.00000    90.00000


 NUMBER OF IRREDUCIBLE ATOMS IN THE CONVENTIONAL CELL:   12

 INPUT COORDINATES

 ATOM AT. N.              COORDINATES
   1   1     1.081528526556E-01 -3.450080126162E-01  2.234626278711E-01
   2   1     2.242141357135E-01 -3.450445584298E-01  1.082629340005E-01
   3   1     5.422551473683E-02  4.164783063562E-01  5.289971870179E-02
   4   1     1.501303392889E-01  3.819851548667E-01  7.538886998623E-02
   5   1     7.587826048348E-02  3.817818404958E-01  1.492552692018E-01
   6  30    -5.000000000000E-01  0.000000000000E+00 -2.505614587291E-01
   7   6     1.236496572231E-01  4.961496370084E-01  1.230624678632E-01
   8   6     1.257639241515E-01 -3.905899423537E-01  1.824476519917E-01
   9   6     9.960595713576E-02  4.146378986853E-01  9.887414978299E-02
  10   7     8.877102100184E-02 -4.628132894226E-01  1.809884698279E-01
  11   6     1.830626459009E-01 -3.906137408985E-01  1.255871073985E-01
  12   7     1.818670800922E-01 -4.628558735411E-01  8.861999400759E-02

 *******************************************************************************

 << INFORMATION >>: FROM NOW ON, ALL COORDINATES REFER TO THE PRIMITIVE CELL

 *******************************************************************************

 LATTICE PARAMETERS  (ANGSTROMS AND DEGREES) - PRIMITIVE CELL
       A          B          C        ALPHA      BETA     GAMMA        VOLUME
   14.67176   14.67176   14.67176   109.47122 109.47122 109.47122   2431.222251

 COORDINATES OF THE EQUIVALENT ATOMS (FRACTIONAL UNITS)

 N. ATOM EQUIV AT. N.          X                  Y                  Z

   1   1   1    1 H    -1.21545384745E-01  3.31615480527E-01 -2.36855159961E-01
   2   1   2    1 H    -4.31529359513E-01  1.15309775215E-01  2.36855159961E-01
   3   1   3    1 H     1.21545384745E-01 -1.15309775215E-01  4.53160865272E-01
   4   1   4    1 H     4.31529359513E-01 -3.31615480527E-01 -4.53160865272E-01
   5   1   5    1 H    -2.36855159961E-01 -1.21545384745E-01  3.31615480527E-01
   6   1   6    1 H     3.31615480527E-01 -2.36855159961E-01 -1.21545384745E-01
   7   1   7    1 H    -4.53160865272E-01  4.31529359513E-01 -3.31615480527E-01
   8   1   8    1 H     1.15309775215E-01  2.36855159961E-01 -4.31529359513E-01
   9   1   9    1 H     2.36855159961E-01 -4.31529359513E-01  1.15309775215E-01
  10   1  10    1 H    -1.15309775215E-01  4.53160865272E-01  1.21545384745E-01
  11   1  11    1 H     4.53160865272E-01  1.21545384745E-01 -1.15309775215E-01
  12   1  12    1 H    -3.31615480527E-01 -4.53160865272E-01  4.31529359513E-01

  13   2   1    1 H    -2.36781624429E-01  3.32477069714E-01 -1.20830422716E-01
  14   2   2    1 H     4.53307492430E-01 -1.15951201713E-01  1.20830422716E-01
  15   2   3    1 H     2.36781624429E-01  1.15951201713E-01 -4.30741305857E-01
  16   2   4    1 H    -4.53307492430E-01 -3.32477069714E-01  4.30741305857E-01
  17   2   5    1 H    -1.20830422716E-01 -2.36781624429E-01  3.32477069714E-01
  18   2   6    1 H     3.32477069714E-01 -1.20830422716E-01 -2.36781624429E-01
  19   2   7    1 H     4.30741305857E-01 -4.53307492430E-01 -3.32477069714E-01
  20   2   8    1 H    -1.15951201713E-01  1.20830422716E-01  4.53307492430E-01
  21   2   9    1 H     1.20830422716E-01  4.53307492430E-01 -1.15951201713E-01
  22   2  10    1 H     1.15951201713E-01 -4.30741305857E-01  2.36781624429E-01
  23   2  11    1 H    -4.30741305857E-01  2.36781624429E-01  1.15951201713E-01
  24   2  12    1 H    -3.32477069714E-01  4.30741305857E-01 -4.53307492430E-01

  25   3   1    1 H     4.69378025058E-01  1.07125233439E-01  4.70703821093E-01
  26   3   2    1 H    -3.63578587654E-01 -1.32579603504E-03 -4.70703821093E-01
  27   3   3    1 H    -4.69378025058E-01  1.32579603504E-03 -3.62252791619E-01
  28   3   4    1 H     3.63578587654E-01 -1.07125233439E-01  3.62252791619E-01
  29   3   5    1 H     4.70703821093E-01  4.69378025058E-01  1.07125233439E-01
  30   3   6    1 H     1.07125233439E-01  4.70703821093E-01  4.69378025058E-01
  31   3   7    1 H     3.62252791619E-01  3.63578587654E-01 -1.07125233439E-01
  32   3   8    1 H    -1.32579603504E-03 -4.70703821093E-01 -3.63578587654E-01
  33   3   9    1 H    -4.70703821093E-01 -3.63578587654E-01 -1.32579603504E-03
  34   3  10    1 H     1.32579603504E-03 -3.62252791619E-01 -4.69378025058E-01
  35   3  11    1 H    -3.62252791619E-01 -4.69378025058E-01  1.32579603504E-03
  36   3  12    1 H    -1.07125233439E-01  3.62252791619E-01  3.63578587654E-01

  37   4   1    1 H     4.57374024853E-01  2.25519209275E-01 -4.67884505844E-01
  38   4   2    1 H    -3.06596284880E-01 -7.47414693027E-02  4.67884505844E-01
  39   4   3    1 H    -4.57374024853E-01  7.47414693027E-02 -2.31854815578E-01
  40   4   4    1 H     3.06596284880E-01 -2.25519209275E-01  2.31854815578E-01
  41   4   5    1 H    -4.67884505844E-01  4.57374024853E-01  2.25519209275E-01
  42   4   6    1 H     2.25519209275E-01 -4.67884505844E-01  4.57374024853E-01
  43   4   7    1 H     2.31854815578E-01  3.06596284880E-01 -2.25519209275E-01
  44   4   8    1 H    -7.47414693027E-02  4.67884505844E-01 -3.06596284880E-01
  45   4   9    1 H     4.67884505844E-01 -3.06596284880E-01 -7.47414693027E-02
  46   4  10    1 H     7.47414693027E-02 -2.31854815578E-01 -4.57374024853E-01
  47   4  11    1 H    -2.31854815578E-01 -4.57374024853E-01  7.47414693027E-02
  48   4  12    1 H    -2.25519209275E-01  2.31854815578E-01  3.06596284880E-01

  49   5   1    1 H    -4.68962890302E-01  2.25133529685E-01  4.57660100979E-01
  50   5   2    1 H    -2.32526571294E-01  7.33770087183E-02 -4.57660100979E-01
  51   5   3    1 H     4.68962890302E-01 -7.33770087183E-02 -3.05903580012E-01
  52   5   4    1 H     2.32526571294E-01 -2.25133529685E-01  3.05903580012E-01
  53   5   5    1 H     4.57660100979E-01 -4.68962890302E-01  2.25133529685E-01
  54   5   6    1 H     2.25133529685E-01  4.57660100979E-01 -4.68962890302E-01
  55   5   7    1 H     3.05903580012E-01  2.32526571294E-01 -2.25133529685E-01
  56   5   8    1 H     7.33770087183E-02 -4.57660100979E-01 -2.32526571294E-01
  57   5   9    1 H    -4.57660100979E-01 -2.32526571294E-01  7.33770087183E-02
  58   5  10    1 H    -7.33770087183E-02 -3.05903580012E-01  4.68962890302E-01
  59   5  11    1 H    -3.05903580012E-01  4.68962890302E-01 -7.33770087183E-02
  60   5  12    1 H    -2.25133529685E-01  3.05903580012E-01  2.32526571294E-01

  61   6   1   30 ZN   -2.50561458729E-01  2.49438541271E-01  5.00000000000E-01
  62   6   2   30 ZN    2.50561458729E-01 -2.49438541271E-01  5.00000000000E-01
  63   6   3   30 ZN    5.00000000000E-01 -2.50561458729E-01  2.49438541271E-01
  64   6   4   30 ZN    2.49438541271E-01  5.00000000000E-01 -2.50561458729E-01
  65   6   5   30 ZN   -5.00000000000E-01  2.50561458729E-01 -2.49438541271E-01
  66   6   6   30 ZN   -2.49438541271E-01  5.00000000000E-01  2.50561458729E-01

  67   7   1    6 C    -3.80787895128E-01  2.46712125086E-01 -3.80200705768E-01
  68   7   2    6 C    -3.73087169145E-01 -5.87189359900E-04  3.80200705768E-01
  69   7   3    6 C     3.80787895128E-01  5.87189359900E-04 -3.72499979785E-01
  70   7   4    6 C     3.73087169145E-01 -2.46712125086E-01  3.72499979785E-01
  71   7   5    6 C    -3.80200705768E-01 -3.80787895128E-01  2.46712125086E-01
  72   7   6    6 C     2.46712125086E-01 -3.80200705768E-01 -3.80787895128E-01
  73   7   7    6 C     3.72499979785E-01  3.73087169145E-01 -2.46712125086E-01
  74   7   8    6 C    -5.87189359900E-04  3.80200705768E-01 -3.73087169145E-01
  75   7   9    6 C     3.80200705768E-01 -3.73087169145E-01 -5.87189359900E-04
  76   7  10    6 C     5.87189359900E-04 -3.72499979785E-01  3.80787895128E-01
  77   7  11    6 C    -3.72499979785E-01  3.80787895128E-01  5.87189359900E-04
  78   7  12    6 C    -2.46712125086E-01  3.72499979785E-01  3.73087169145E-01

  79   8   1    6 C    -2.08142290362E-01  3.08211576143E-01 -2.64826018202E-01
  80   8   2    6 C    -4.26962405655E-01  5.66837278402E-02  2.64826018202E-01
  81   8   3    6 C     2.08142290362E-01 -5.66837278402E-02 -4.83646133495E-01
  82   8   4    6 C     4.26962405655E-01 -3.08211576143E-01  4.83646133495E-01
  83   8   5    6 C    -2.64826018202E-01 -2.08142290362E-01  3.08211576143E-01
  84   8   6    6 C     3.08211576143E-01 -2.64826018202E-01 -2.08142290362E-01
  85   8   7    6 C     4.83646133495E-01  4.26962405655E-01 -3.08211576143E-01
  86   8   8    6 C     5.66837278402E-02  2.64826018202E-01 -4.26962405655E-01
  87   8   9    6 C     2.64826018202E-01 -4.26962405655E-01  5.66837278402E-02
  88   8  10    6 C    -5.66837278402E-02 -4.83646133495E-01  2.08142290362E-01
  89   8  11    6 C    -4.83646133495E-01  2.08142290362E-01 -5.66837278402E-02
  90   8  12    6 C    -3.08211576143E-01  4.83646133495E-01  4.26962405655E-01

  91   9   1    6 C    -4.86487951532E-01  1.98480106919E-01 -4.85756144179E-01
  92   9   2    6 C    -3.15763748902E-01 -7.31807352770E-04  4.85756144179E-01
  93   9   3    6 C     4.86487951532E-01  7.31807352770E-04 -3.15031941550E-01
  94   9   4    6 C     3.15763748902E-01 -1.98480106919E-01  3.15031941550E-01
  95   9   5    6 C    -4.85756144179E-01 -4.86487951532E-01  1.98480106919E-01
  96   9   6    6 C     1.98480106919E-01 -4.85756144179E-01 -4.86487951532E-01
  97   9   7    6 C     3.15031941550E-01  3.15763748902E-01 -1.98480106919E-01
  98   9   8    6 C    -7.31807352770E-04  4.85756144179E-01 -3.15763748902E-01
  99   9   9    6 C     4.85756144179E-01 -3.15763748902E-01 -7.31807352770E-04
 100   9  10    6 C     7.31807352770E-04 -3.15031941550E-01  4.86487951532E-01
 101   9  11    6 C    -3.15031941550E-01  4.86487951532E-01  7.31807352770E-04
 102   9  12    6 C    -1.98480106919E-01  3.15031941550E-01  3.15763748902E-01

 103  10   1    7 N    -2.81824819595E-01  2.69759490830E-01 -3.74042268421E-01
 104  10   2    7 N    -3.56198240749E-01  9.22174488261E-02  3.74042268421E-01
 105  10   3    7 N     2.81824819595E-01 -9.22174488261E-02 -4.48415689576E-01
 106  10   4    7 N     3.56198240749E-01 -2.69759490830E-01  4.48415689576E-01
 107  10   5    7 N    -3.74042268421E-01 -2.81824819595E-01  2.69759490830E-01
 108  10   6    7 N     2.69759490830E-01 -3.74042268421E-01 -2.81824819595E-01
 109  10   7    7 N     4.48415689576E-01  3.56198240749E-01 -2.69759490830E-01
 110  10   8    7 N     9.22174488261E-02  3.74042268421E-01 -3.56198240749E-01
 111  10   9    7 N     3.74042268421E-01 -3.56198240749E-01  9.22174488261E-02
 112  10  10    7 N    -9.22174488261E-02 -4.48415689576E-01  2.81824819595E-01
 113  10  11    7 N    -4.48415689576E-01  2.81824819595E-01 -9.22174488261E-02
 114  10  12    7 N    -2.69759490830E-01  4.48415689576E-01  3.56198240749E-01

 115  11   1    6 C    -2.65026633500E-01  3.08649753299E-01 -2.07551094998E-01
 116  11   2    6 C    -4.83799151703E-01 -5.74755385024E-02  2.07551094998E-01
 117  11   3    6 C     2.65026633500E-01  5.74755385024E-02 -4.26323613201E-01
 118  11   4    6 C     4.83799151703E-01 -3.08649753299E-01  4.26323613201E-01
 119  11   5    6 C    -2.07551094998E-01 -2.65026633500E-01  3.08649753299E-01
 120  11   6    6 C     3.08649753299E-01 -2.07551094998E-01 -2.65026633500E-01
 121  11   7    6 C     4.26323613201E-01  4.83799151703E-01 -3.08649753299E-01
 122  11   8    6 C    -5.74755385024E-02  2.07551094998E-01 -4.83799151703E-01
 123  11   9    6 C     2.07551094998E-01 -4.83799151703E-01 -5.74755385024E-02
 124  11  10    6 C     5.74755385024E-02 -4.26323613201E-01  2.65026633500E-01
 125  11  11    6 C    -4.26323613201E-01  2.65026633500E-01  5.74755385024E-02
 126  11  12    6 C    -3.08649753299E-01  4.26323613201E-01  4.83799151703E-01

 127  12   1    7 N    -3.74235879534E-01  2.70487074100E-01 -2.80988793449E-01
 128  12   2    7 N    -4.48524132451E-01 -9.32470860846E-02  2.80988793449E-01
 129  12   3    7 N     3.74235879534E-01  9.32470860846E-02 -3.55277046367E-01
 130  12   4    7 N     4.48524132451E-01 -2.70487074100E-01  3.55277046367E-01
 131  12   5    7 N    -2.80988793449E-01 -3.74235879534E-01  2.70487074100E-01
 132  12   6    7 N     2.70487074100E-01 -2.80988793449E-01 -3.74235879534E-01
 133  12   7    7 N     3.55277046367E-01  4.48524132451E-01 -2.70487074100E-01
 134  12   8    7 N    -9.32470860846E-02  2.80988793449E-01 -4.48524132451E-01
 135  12   9    7 N     2.80988793449E-01 -4.48524132451E-01 -9.32470860846E-02
 136  12  10    7 N     9.32470860846E-02 -3.55277046367E-01  3.74235879534E-01
 137  12  11    7 N    -3.55277046367E-01  3.74235879534E-01  9.32470860846E-02
 138  12  12    7 N    -2.70487074100E-01  3.55277046367E-01  4.48524132451E-01

 NUMBER OF SYMMETRY OPERATORS         :   12
 *******************************************************************************
 * GEOMETRY EDITING - INPUT COORDINATES ARE GIVEN IN ANGSTROM         
 *******************************************************************************

 GEOMETRY NOW FULLY CONSISTENT WITH THE GROUP
 INFORMATION **** SUPERCON **** SUPERCELL EXPANSION MATRIX REFERS TO CRYSTALLOGRAPHIC CELL

 NO SYMMOPS WITH FINITE TRANSLATIONAL COMPONENT

 *******************************************************************************
 * SUPERCELL OPTION
 *******************************************************************************


        EXPANSION MATRIX OF CONVENTIONAL CELL
 E1     1.000     0.000     0.000
 E2     0.000     1.000     0.000
 E3     0.000     0.000     1.000

        EXPANSION MATRIX OF PRIMITIVE CELL
 E1     0.000     1.000     1.000
 E2     1.000     0.000     1.000
 E3     1.000     1.000     0.000

 NUMBER OF ATOMS PER SUPERCELL   276

        DIRECT LATTICE VECTORS COMPONENTS (ANGSTROM)
 B1    16.941     0.000     0.000
 B2     0.000    16.941     0.000
 B3     0.000     0.000    16.941

 LATTICE PARAMETERS  (ANGSTROM AND DEGREES)
       A          B          C         ALPHA     BETA     GAMMA        VOLUME
   16.94149   16.94149   16.94149    90.00000  90.00000  90.00000   4862.444502


 **** ATOMS BELONGING TO THE SUPERCELL
 LABEL AT.NO.      COORDINATES (ANGSTROM AND FRACTIONAL)
     1     1     1.8323    -5.8449     3.7858     0.1082    -0.3450     0.2235
     2     1    -6.6385     2.6258    -4.6850    -0.3918     0.1550    -0.2765
     3     1    -1.8323     5.8449     3.7858    -0.1082     0.3450     0.2235
     4     1     6.6385    -2.6258    -4.6850     0.3918    -0.1550    -0.2765
     5     1     1.8323     5.8449    -3.7858     0.1082     0.3450    -0.2235
     6     1    -6.6385    -2.6258     4.6850    -0.3918    -0.1550     0.2765
     7     1    -1.8323    -5.8449    -3.7858    -0.1082    -0.3450    -0.2235
     8     1     6.6385     2.6258     4.6850     0.3918     0.1550     0.2765
     9     1     3.7858     1.8323    -5.8449     0.2235     0.1082    -0.3450
    10     1    -4.6850    -6.6385     2.6258    -0.2765    -0.3918     0.1550
    11     1    -5.8449     3.7858     1.8323    -0.3450     0.2235     0.1082
    12     1     2.6258    -4.6850    -6.6385     0.1550    -0.2765    -0.3918
    13     1    -3.7858    -1.8323    -5.8449    -0.2235    -0.1082    -0.3450
    14     1     4.6850     6.6385     2.6258     0.2765     0.3918     0.1550
    15     1     5.8449     3.7858    -1.8323     0.3450     0.2235    -0.1082
    16     1    -2.6258    -4.6850     6.6385    -0.1550    -0.2765     0.3918
    17     1     3.7858    -1.8323     5.8449     0.2235    -0.1082     0.3450
    18     1    -4.6850     6.6385    -2.6258    -0.2765     0.3918    -0.1550
    19     1     5.8449    -3.7858     1.8323     0.3450    -0.2235     0.1082
    20     1    -2.6258     4.6850    -6.6385    -0.1550     0.2765    -0.3918
    21     1    -3.7858     1.8323     5.8449    -0.2235     0.1082     0.3450
    22     1     4.6850    -6.6385    -2.6258     0.2765    -0.3918    -0.1550
    23     1    -5.8449    -3.7858    -1.8323    -0.3450    -0.2235    -0.1082
    24     1     2.6258     4.6850     6.6385     0.1550     0.2765     0.3918
    25     1     3.7985    -5.8456     1.8341     0.2242    -0.3450     0.1083
    26     1    -4.6722     2.6252    -6.6366    -0.2758     0.1550    -0.3917
    27     1    -3.7985     5.8456     1.8341    -0.2242     0.3450     0.1083
    28     1     4.6722    -2.6252    -6.6366     0.2758    -0.1550    -0.3917
    29     1     3.7985     5.8456    -1.8341     0.2242     0.3450    -0.1083
    30     1    -4.6722    -2.6252     6.6366    -0.2758    -0.1550     0.3917
    31     1    -3.7985    -5.8456    -1.8341    -0.2242    -0.3450    -0.1083
    32     1     4.6722     2.6252     6.6366     0.2758     0.1550     0.3917
    33     1     1.8341     3.7985    -5.8456     0.1083     0.2242    -0.3450
    34     1    -6.6366    -4.6722     2.6252    -0.3917    -0.2758     0.1550
    35     1    -5.8456     1.8341     3.7985    -0.3450     0.1083     0.2242
    36     1     2.6252    -6.6366    -4.6722     0.1550    -0.3917    -0.2758
    37     1    -1.8341    -3.7985    -5.8456    -0.1083    -0.2242    -0.3450
    38     1     6.6366     4.6722     2.6252     0.3917     0.2758     0.1550
    39     1     5.8456     1.8341    -3.7985     0.3450     0.1083    -0.2242
    40     1    -2.6252    -6.6366     4.6722    -0.1550    -0.3917     0.2758
    41     1     1.8341    -3.7985     5.8456     0.1083    -0.2242     0.3450
    42     1    -6.6366     4.6722    -2.6252    -0.3917     0.2758    -0.1550
    43     1     5.8456    -1.8341     3.7985     0.3450    -0.1083     0.2242
    44     1    -2.6252     6.6366    -4.6722    -0.1550     0.3917    -0.2758
    45     1    -1.8341     3.7985     5.8456    -0.1083     0.2242     0.3450
    46     1     6.6366    -4.6722    -2.6252     0.3917    -0.2758    -0.1550
    47     1    -5.8456    -1.8341    -3.7985    -0.3450    -0.1083    -0.2242
    48     1     2.6252     6.6366     4.6722     0.1550     0.3917     0.2758
    49     1     0.9187     7.0558     0.8962     0.0542     0.4165     0.0529
    50     1    -7.5521    -1.4150    -7.5745    -0.4458    -0.0835    -0.4471
    51     1    -0.9187    -7.0558     0.8962    -0.0542    -0.4165     0.0529
    52     1     7.5521     1.4150    -7.5745     0.4458     0.0835    -0.4471
    53     1     0.9187    -7.0558    -0.8962     0.0542    -0.4165    -0.0529
    54     1    -7.5521     1.4150     7.5745    -0.4458     0.0835     0.4471
    55     1    -0.9187     7.0558    -0.8962    -0.0542     0.4165    -0.0529
    56     1     7.5521    -1.4150     7.5745     0.4458    -0.0835     0.4471
    57     1     0.8962     0.9187     7.0558     0.0529     0.0542     0.4165
    58     1    -7.5745    -7.5521    -1.4150    -0.4471    -0.4458    -0.0835
    59     1     7.0558     0.8962     0.9187     0.4165     0.0529     0.0542
    60     1    -1.4150    -7.5745    -7.5521    -0.0835    -0.4471    -0.4458
    61     1    -0.8962    -0.9187     7.0558    -0.0529    -0.0542     0.4165
    62     1     7.5745     7.5521    -1.4150     0.4471     0.4458    -0.0835
    63     1    -7.0558     0.8962    -0.9187    -0.4165     0.0529    -0.0542
    64     1     1.4150    -7.5745     7.5521     0.0835    -0.4471     0.4458
    65     1     0.8962    -0.9187    -7.0558     0.0529    -0.0542    -0.4165
    66     1    -7.5745     7.5521     1.4150    -0.4471     0.4458     0.0835
    67     1    -7.0558    -0.8962     0.9187    -0.4165    -0.0529     0.0542
    68     1     1.4150     7.5745    -7.5521     0.0835     0.4471    -0.4458
    69     1    -0.8962     0.9187    -7.0558    -0.0529     0.0542    -0.4165
    70     1     7.5745    -7.5521     1.4150     0.4471    -0.4458     0.0835
    71     1     7.0558    -0.8962    -0.9187     0.4165    -0.0529    -0.0542
    72     1    -1.4150     7.5745     7.5521    -0.0835     0.4471     0.4458
    73     1     2.5434     6.4714     1.2772     0.1501     0.3820     0.0754
    74     1    -5.9273    -1.9993    -7.1935    -0.3499    -0.1180    -0.4246
    75     1    -2.5434    -6.4714     1.2772    -0.1501    -0.3820     0.0754
    76     1     5.9273     1.9993    -7.1935     0.3499     0.1180    -0.4246
    77     1     2.5434    -6.4714    -1.2772     0.1501    -0.3820    -0.0754
    78     1    -5.9273     1.9993     7.1935    -0.3499     0.1180     0.4246
    79     1    -2.5434     6.4714    -1.2772    -0.1501     0.3820    -0.0754
    80     1     5.9273    -1.9993     7.1935     0.3499    -0.1180     0.4246
    81     1     1.2772     2.5434     6.4714     0.0754     0.1501     0.3820
    82     1    -7.1935    -5.9273    -1.9993    -0.4246    -0.3499    -0.1180
    83     1     6.4714     1.2772     2.5434     0.3820     0.0754     0.1501
    84     1    -1.9993    -7.1935    -5.9273    -0.1180    -0.4246    -0.3499
    85     1    -1.2772    -2.5434     6.4714    -0.0754    -0.1501     0.3820
    86     1     7.1935     5.9273    -1.9993     0.4246     0.3499    -0.1180
    87     1    -6.4714     1.2772    -2.5434    -0.3820     0.0754    -0.1501
    88     1     1.9993    -7.1935     5.9273     0.1180    -0.4246     0.3499
    89     1     1.2772    -2.5434    -6.4714     0.0754    -0.1501    -0.3820
    90     1    -7.1935     5.9273     1.9993    -0.4246     0.3499     0.1180
    91     1    -6.4714    -1.2772     2.5434    -0.3820    -0.0754     0.1501
    92     1     1.9993     7.1935    -5.9273     0.1180     0.4246    -0.3499
    93     1    -1.2772     2.5434    -6.4714    -0.0754     0.1501    -0.3820
    94     1     7.1935    -5.9273     1.9993     0.4246    -0.3499     0.1180
    95     1     6.4714    -1.2772    -2.5434     0.3820    -0.0754    -0.1501
    96     1    -1.9993     7.1935     5.9273    -0.1180     0.4246     0.3499
    97     1     1.2855     6.4680     2.5286     0.0759     0.3818     0.1493
    98     1    -7.1853    -2.0028    -5.9421    -0.4241    -0.1182    -0.3507
    99     1    -1.2855    -6.4680     2.5286    -0.0759    -0.3818     0.1493
   100     1     7.1853     2.0028    -5.9421     0.4241     0.1182    -0.3507
   101     1     1.2855    -6.4680    -2.5286     0.0759    -0.3818    -0.1493
   102     1    -7.1853     2.0028     5.9421    -0.4241     0.1182     0.3507
   103     1    -1.2855     6.4680    -2.5286    -0.0759     0.3818    -0.1493
   104     1     7.1853    -2.0028     5.9421     0.4241    -0.1182     0.3507
   105     1     2.5286     1.2855     6.4680     0.1493     0.0759     0.3818
   106     1    -5.9421    -7.1853    -2.0028    -0.3507    -0.4241    -0.1182
   107     1     6.4680     2.5286     1.2855     0.3818     0.1493     0.0759
   108     1    -2.0028    -5.9421    -7.1853    -0.1182    -0.3507    -0.4241
   109     1    -2.5286    -1.2855     6.4680    -0.1493    -0.0759     0.3818
   110     1     5.9421     7.1853    -2.0028     0.3507     0.4241    -0.1182
   111     1    -6.4680     2.5286    -1.2855    -0.3818     0.1493    -0.0759
   112     1     2.0028    -5.9421     7.1853     0.1182    -0.3507     0.4241
   113     1     2.5286    -1.2855    -6.4680     0.1493    -0.0759    -0.3818
   114     1    -5.9421     7.1853     2.0028    -0.3507     0.4241     0.1182
   115     1    -6.4680    -2.5286     1.2855    -0.3818    -0.1493     0.0759
   116     1     2.0028     5.9421    -7.1853     0.1182     0.3507    -0.4241
   117     1    -2.5286     1.2855    -6.4680    -0.1493     0.0759    -0.3818
   118     1     5.9421    -7.1853     2.0028     0.3507    -0.4241     0.1182
   119     1     6.4680    -2.5286    -1.2855     0.3818    -0.1493    -0.0759
   120     1    -2.0028     5.9421     7.1853    -0.1182     0.3507     0.4241
   121    30     0.0000     8.4707     4.2259     0.0000     0.5000     0.2494
   122    30    -8.4707     0.0000    -4.2449    -0.5000     0.0000    -0.2506
   123    30     0.0000     8.4707    -4.2259     0.0000     0.5000    -0.2494
   124    30    -8.4707     0.0000     4.2449    -0.5000     0.0000     0.2506
   125    30     4.2259     0.0000     8.4707     0.2494     0.0000     0.5000
   126    30    -4.2449    -8.4707     0.0000    -0.2506    -0.5000     0.0000
   127    30     8.4707     4.2259    -0.0000     0.5000     0.2494    -0.0000
   128    30     0.0000    -4.2449     8.4707     0.0000    -0.2506     0.5000
   129    30    -4.2259     0.0000     8.4707    -0.2494     0.0000     0.5000
   130    30     4.2449    -8.4707     0.0000     0.2506    -0.5000     0.0000
   131    30     8.4707    -4.2259    -0.0000     0.5000    -0.2494    -0.0000
   132    30     0.0000     4.2449     8.4707     0.0000     0.2506     0.5000
   133     6     2.0948     8.4055     2.0849     0.1236     0.4961     0.1231
   134     6    -6.3759    -0.0652    -6.3859    -0.3764    -0.0039    -0.3769
   135     6    -2.0948    -8.4055     2.0849    -0.1236    -0.4961     0.1231
   136     6     6.3759     0.0652    -6.3859     0.3764     0.0039    -0.3769
   137     6     2.0948    -8.4055    -2.0849     0.1236    -0.4961    -0.1231
   138     6    -6.3759     0.0652     6.3859    -0.3764     0.0039     0.3769
   139     6    -2.0948     8.4055    -2.0849    -0.1236     0.4961    -0.1231
   140     6     6.3759    -0.0652     6.3859     0.3764    -0.0039     0.3769
   141     6     2.0849     2.0948     8.4055     0.1231     0.1236     0.4961
   142     6    -6.3859    -6.3759    -0.0652    -0.3769    -0.3764    -0.0039
   143     6     8.4055     2.0849     2.0948     0.4961     0.1231     0.1236
   144     6    -0.0652    -6.3859    -6.3759    -0.0039    -0.3769    -0.3764
   145     6    -2.0849    -2.0948     8.4055    -0.1231    -0.1236     0.4961
   146     6     6.3859     6.3759    -0.0652     0.3769     0.3764    -0.0039
   147     6    -8.4055     2.0849    -2.0948    -0.4961     0.1231    -0.1236
   148     6     0.0652    -6.3859     6.3759     0.0039    -0.3769     0.3764
   149     6     2.0849    -2.0948    -8.4055     0.1231    -0.1236    -0.4961
   150     6    -6.3859     6.3759     0.0652    -0.3769     0.3764     0.0039
   151     6    -8.4055    -2.0849     2.0948    -0.4961    -0.1231     0.1236
   152     6     0.0652     6.3859    -6.3759     0.0039     0.3769    -0.3764
   153     6    -2.0849     2.0948    -8.4055    -0.1231     0.1236    -0.4961
   154     6     6.3859    -6.3759     0.0652     0.3769    -0.3764     0.0039
   155     6     8.4055    -2.0849    -2.0948     0.4961    -0.1231    -0.1236
   156     6    -0.0652     6.3859     6.3759    -0.0039     0.3769     0.3764
   157     6     2.1306    -6.6172     3.0909     0.1258    -0.3906     0.1824
   158     6    -6.3401     1.8536    -5.3798    -0.3742     0.1094    -0.3176
   159     6    -2.1306     6.6172     3.0909    -0.1258     0.3906     0.1824
   160     6     6.3401    -1.8536    -5.3798     0.3742    -0.1094    -0.3176
   161     6     2.1306     6.6172    -3.0909     0.1258     0.3906    -0.1824
   162     6    -6.3401    -1.8536     5.3798    -0.3742    -0.1094     0.3176
   163     6    -2.1306    -6.6172    -3.0909    -0.1258    -0.3906    -0.1824
   164     6     6.3401     1.8536     5.3798     0.3742     0.1094     0.3176
   165     6     3.0909     2.1306    -6.6172     0.1824     0.1258    -0.3906
   166     6    -5.3798    -6.3401     1.8536    -0.3176    -0.3742     0.1094
   167     6    -6.6172     3.0909     2.1306    -0.3906     0.1824     0.1258
   168     6     1.8536    -5.3798    -6.3401     0.1094    -0.3176    -0.3742
   169     6    -3.0909    -2.1306    -6.6172    -0.1824    -0.1258    -0.3906
   170     6     5.3798     6.3401     1.8536     0.3176     0.3742     0.1094
   171     6     6.6172     3.0909    -2.1306     0.3906     0.1824    -0.1258
   172     6    -1.8536    -5.3798     6.3401    -0.1094    -0.3176     0.3742
   173     6     3.0909    -2.1306     6.6172     0.1824    -0.1258     0.3906
   174     6    -5.3798     6.3401    -1.8536    -0.3176     0.3742    -0.1094
   175     6     6.6172    -3.0909     2.1306     0.3906    -0.1824     0.1258
   176     6    -1.8536     5.3798    -6.3401    -0.1094     0.3176    -0.3742
   177     6    -3.0909     2.1306     6.6172    -0.1824     0.1258     0.3906
   178     6     5.3798    -6.3401    -1.8536     0.3176    -0.3742    -0.1094
   179     6    -6.6172    -3.0909    -2.1306    -0.3906    -0.1824    -0.1258
   180     6     1.8536     5.3798     6.3401     0.1094     0.3176     0.3742
   181     6     1.6875     7.0246     1.6751     0.0996     0.4146     0.0989
   182     6    -6.7833    -1.4462    -6.7957    -0.4004    -0.0854    -0.4011
   183     6    -1.6875    -7.0246     1.6751    -0.0996    -0.4146     0.0989
   184     6     6.7833     1.4462    -6.7957     0.4004     0.0854    -0.4011
   185     6     1.6875    -7.0246    -1.6751     0.0996    -0.4146    -0.0989
   186     6    -6.7833     1.4462     6.7957    -0.4004     0.0854     0.4011
   187     6    -1.6875     7.0246    -1.6751    -0.0996     0.4146    -0.0989
   188     6     6.7833    -1.4462     6.7957     0.4004    -0.0854     0.4011
   189     6     1.6751     1.6875     7.0246     0.0989     0.0996     0.4146
   190     6    -6.7957    -6.7833    -1.4462    -0.4011    -0.4004    -0.0854
   191     6     7.0246     1.6751     1.6875     0.4146     0.0989     0.0996
   192     6    -1.4462    -6.7957    -6.7833    -0.0854    -0.4011    -0.4004
   193     6    -1.6751    -1.6875     7.0246    -0.0989    -0.0996     0.4146
   194     6     6.7957     6.7833    -1.4462     0.4011     0.4004    -0.0854
   195     6    -7.0246     1.6751    -1.6875    -0.4146     0.0989    -0.0996
   196     6     1.4462    -6.7957     6.7833     0.0854    -0.4011     0.4004
   197     6     1.6751    -1.6875    -7.0246     0.0989    -0.0996    -0.4146
   198     6    -6.7957     6.7833     1.4462    -0.4011     0.4004     0.0854
   199     6    -7.0246    -1.6751     1.6875    -0.4146    -0.0989     0.0996
   200     6     1.4462     6.7957    -6.7833     0.0854     0.4011    -0.4004
   201     6    -1.6751     1.6875    -7.0246    -0.0989     0.0996    -0.4146
   202     6     6.7957    -6.7833     1.4462     0.4011    -0.4004     0.0854
   203     6     7.0246    -1.6751    -1.6875     0.4146    -0.0989    -0.0996
   204     6    -1.4462     6.7957     6.7833    -0.0854     0.4011     0.4004
   205     7     1.5039    -7.8407     3.0662     0.0888    -0.4628     0.1810
   206     7    -6.9668     0.6300    -5.4045    -0.4112     0.0372    -0.3190
   207     7    -1.5039     7.8407     3.0662    -0.0888     0.4628     0.1810
   208     7     6.9668    -0.6300    -5.4045     0.4112    -0.0372    -0.3190
   209     7     1.5039     7.8407    -3.0662     0.0888     0.4628    -0.1810
   210     7    -6.9668    -0.6300     5.4045    -0.4112    -0.0372     0.3190
   211     7    -1.5039    -7.8407    -3.0662    -0.0888    -0.4628    -0.1810
   212     7     6.9668     0.6300     5.4045     0.4112     0.0372     0.3190
   213     7     3.0662     1.5039    -7.8407     0.1810     0.0888    -0.4628
   214     7    -5.4045    -6.9668     0.6300    -0.3190    -0.4112     0.0372
   215     7    -7.8407     3.0662     1.5039    -0.4628     0.1810     0.0888
   216     7     0.6300    -5.4045    -6.9668     0.0372    -0.3190    -0.4112
   217     7    -3.0662    -1.5039    -7.8407    -0.1810    -0.0888    -0.4628
   218     7     5.4045     6.9668     0.6300     0.3190     0.4112     0.0372
   219     7     7.8407     3.0662    -1.5039     0.4628     0.1810    -0.0888
   220     7    -0.6300    -5.4045     6.9668    -0.0372    -0.3190     0.4112
   221     7     3.0662    -1.5039     7.8407     0.1810    -0.0888     0.4628
   222     7    -5.4045     6.9668    -0.6300    -0.3190     0.4112    -0.0372
   223     7     7.8407    -3.0662     1.5039     0.4628    -0.1810     0.0888
   224     7    -0.6300     5.4045    -6.9668    -0.0372     0.3190    -0.4112
   225     7    -3.0662     1.5039     7.8407    -0.1810     0.0888     0.4628
   226     7     5.4045    -6.9668    -0.6300     0.3190    -0.4112    -0.0372
   227     7    -7.8407    -3.0662    -1.5039    -0.4628    -0.1810    -0.0888
   228     7     0.6300     5.4045     6.9668     0.0372     0.3190     0.4112
   229     6     3.1014    -6.6176     2.1276     0.1831    -0.3906     0.1256
   230     6    -5.3694     1.8532    -6.3431    -0.3169     0.1094    -0.3744
   231     6    -3.1014     6.6176     2.1276    -0.1831     0.3906     0.1256
   232     6     5.3694    -1.8532    -6.3431     0.3169    -0.1094    -0.3744
   233     6     3.1014     6.6176    -2.1276     0.1831     0.3906    -0.1256
   234     6    -5.3694    -1.8532     6.3431    -0.3169    -0.1094     0.3744
   235     6    -3.1014    -6.6176    -2.1276    -0.1831    -0.3906    -0.1256
   236     6     5.3694     1.8532     6.3431     0.3169     0.1094     0.3744
   237     6     2.1276     3.1014    -6.6176     0.1256     0.1831    -0.3906
   238     6    -6.3431    -5.3694     1.8532    -0.3744    -0.3169     0.1094
   239     6    -6.6176     2.1276     3.1014    -0.3906     0.1256     0.1831
   240     6     1.8532    -6.3431    -5.3694     0.1094    -0.3744    -0.3169
   241     6    -2.1276    -3.1014    -6.6176    -0.1256    -0.1831    -0.3906
   242     6     6.3431     5.3694     1.8532     0.3744     0.3169     0.1094
   243     6     6.6176     2.1276    -3.1014     0.3906     0.1256    -0.1831
   244     6    -1.8532    -6.3431     5.3694    -0.1094    -0.3744     0.3169
   245     6     2.1276    -3.1014     6.6176     0.1256    -0.1831     0.3906
   246     6    -6.3431     5.3694    -1.8532    -0.3744     0.3169    -0.1094
   247     6     6.6176    -2.1276     3.1014     0.3906    -0.1256     0.1831
   248     6    -1.8532     6.3431    -5.3694    -0.1094     0.3744    -0.3169
   249     6    -2.1276     3.1014     6.6176    -0.1256     0.1831     0.3906
   250     6     6.3431    -5.3694    -1.8532     0.3744    -0.3169    -0.1094
   251     6    -6.6176    -2.1276    -3.1014    -0.3906    -0.1256    -0.1831
   252     6     1.8532     6.3431     5.3694     0.1094     0.3744     0.3169
   253     7     3.0811    -7.8415     1.5014     0.1819    -0.4629     0.0886
   254     7    -5.3896     0.6293    -6.9694    -0.3181     0.0371    -0.4114
   255     7    -3.0811     7.8415     1.5014    -0.1819     0.4629     0.0886
   256     7     5.3896    -0.6293    -6.9694     0.3181    -0.0371    -0.4114
   257     7     3.0811     7.8415    -1.5014     0.1819     0.4629    -0.0886
   258     7    -5.3896    -0.6293     6.9694    -0.3181    -0.0371     0.4114
   259     7    -3.0811    -7.8415    -1.5014    -0.1819    -0.4629    -0.0886
   260     7     5.3896     0.6293     6.9694     0.3181     0.0371     0.4114
   261     7     1.5014     3.0811    -7.8415     0.0886     0.1819    -0.4629
   262     7    -6.9694    -5.3896     0.6293    -0.4114    -0.3181     0.0371
   263     7    -7.8415     1.5014     3.0811    -0.4629     0.0886     0.1819
   264     7     0.6293    -6.9694    -5.3896     0.0371    -0.4114    -0.3181
   265     7    -1.5014    -3.0811    -7.8415    -0.0886    -0.1819    -0.4629
   266     7     6.9694     5.3896     0.6293     0.4114     0.3181     0.0371
   267     7     7.8415     1.5014    -3.0811     0.4629     0.0886    -0.1819
   268     7    -0.6293    -6.9694     5.3896    -0.0371    -0.4114     0.3181
   269     7     1.5014    -3.0811     7.8415     0.0886    -0.1819     0.4629
   270     7    -6.9694     5.3896    -0.6293    -0.4114     0.3181    -0.0371
   271     7     7.8415    -1.5014     3.0811     0.4629    -0.0886     0.1819
   272     7    -0.6293     6.9694    -5.3896    -0.0371     0.4114    -0.3181
   273     7    -1.5014     3.0811     7.8415    -0.0886     0.1819     0.4629
   274     7     6.9694    -5.3896    -0.6293     0.4114    -0.3181    -0.0371
   275     7    -7.8415    -1.5014    -3.0811    -0.4629    -0.0886    -0.1819
   276     7     0.6293     6.9694     5.3896     0.0371     0.4114     0.3181

 **************************** SUPERCELL GENERATED ****************************

 USE OF SYMMETRY WILL BE SUBSEQUENTLY SUSPENDED

 GCALCO - MAX INDICES DIRECT LATTICE VECTOR    14    14    14
 NO.OF VECTORS CREATED 6999 STARS  120 RMAX   380.15436 BOHR

 GEOMETRY FOR WAVE FUNCTION - DIMENSIONALITY OF THE SYSTEM    3
 (NON PERIODIC DIRECTION: LATTICE PARAMETER FORMALLY SET TO 500)
 *******************************************************************************
 LATTICE PARAMETERS (ANGSTROMS AND DEGREES) - BOHR = 0.5291772083 ANGSTROM
 PRIMITIVE CELL - CENTRING CODE 1/0 VOLUME=  4862.444502 - DENSITY  0.926 g/cm^3
         A              B              C           ALPHA      BETA       GAMMA 
    16.94148800    16.94148800    16.94148800    90.000000  90.000000  90.000000
 *******************************************************************************
 ATOMS IN THE ASYMMETRIC UNIT  276 - ATOMS IN THE UNIT CELL:  276
     ATOM                 X/A                 Y/B                 Z/C    
 *******************************************************************************
      1 T   1 H     1.081528526556E-01 -3.450080126162E-01  2.234626278711E-01
      2 T   1 H    -3.918471473444E-01  1.549919873838E-01 -2.765373721289E-01
      3 T   1 H    -1.081528526556E-01  3.450080126162E-01  2.234626278711E-01
      4 T   1 H     3.918471473444E-01 -1.549919873838E-01 -2.765373721289E-01
      5 T   1 H     1.081528526556E-01  3.450080126162E-01 -2.234626278711E-01
      6 T   1 H    -3.918471473444E-01 -1.549919873838E-01  2.765373721289E-01
      7 T   1 H    -1.081528526556E-01 -3.450080126162E-01 -2.234626278711E-01
      8 T   1 H     3.918471473444E-01  1.549919873838E-01  2.765373721289E-01
      9 T   1 H     2.234626278711E-01  1.081528526556E-01 -3.450080126162E-01
     10 T   1 H    -2.765373721289E-01 -3.918471473444E-01  1.549919873838E-01
     11 T   1 H    -3.450080126162E-01  2.234626278711E-01  1.081528526556E-01
     12 T   1 H     1.549919873838E-01 -2.765373721289E-01 -3.918471473444E-01
     13 T   1 H    -2.234626278711E-01 -1.081528526556E-01 -3.450080126162E-01
     14 T   1 H     2.765373721289E-01  3.918471473444E-01  1.549919873838E-01
     15 T   1 H     3.450080126162E-01  2.234626278711E-01 -1.081528526556E-01
     16 T   1 H    -1.549919873838E-01 -2.765373721289E-01  3.918471473444E-01
     17 T   1 H     2.234626278711E-01 -1.081528526556E-01  3.450080126162E-01
     18 T   1 H    -2.765373721289E-01  3.918471473444E-01 -1.549919873838E-01
     19 T   1 H     3.450080126162E-01 -2.234626278711E-01  1.081528526556E-01
     20 T   1 H    -1.549919873838E-01  2.765373721289E-01 -3.918471473444E-01
     21 T   1 H    -2.234626278711E-01  1.081528526556E-01  3.450080126162E-01
     22 T   1 H     2.765373721289E-01 -3.918471473444E-01 -1.549919873838E-01
     23 T   1 H    -3.450080126162E-01 -2.234626278711E-01 -1.081528526556E-01
     24 T   1 H     1.549919873838E-01  2.765373721289E-01  3.918471473444E-01
     25 T   1 H     2.242141357135E-01 -3.450445584298E-01  1.082629340005E-01
     26 T   1 H    -2.757858642865E-01  1.549554415702E-01 -3.917370659995E-01
     27 T   1 H    -2.242141357135E-01  3.450445584298E-01  1.082629340005E-01
     28 T   1 H     2.757858642865E-01 -1.549554415702E-01 -3.917370659995E-01
     29 T   1 H     2.242141357135E-01  3.450445584298E-01 -1.082629340005E-01
     30 T   1 H    -2.757858642865E-01 -1.549554415702E-01  3.917370659995E-01
     31 T   1 H    -2.242141357135E-01 -3.450445584298E-01 -1.082629340005E-01
     32 T   1 H     2.757858642865E-01  1.549554415702E-01  3.917370659995E-01
     33 T   1 H     1.082629340005E-01  2.242141357135E-01 -3.450445584298E-01
     34 T   1 H    -3.917370659995E-01 -2.757858642865E-01  1.549554415702E-01
     35 T   1 H    -3.450445584298E-01  1.082629340005E-01  2.242141357135E-01
     36 T   1 H     1.549554415702E-01 -3.917370659995E-01 -2.757858642865E-01
     37 T   1 H    -1.082629340005E-01 -2.242141357135E-01 -3.450445584298E-01
     38 T   1 H     3.917370659995E-01  2.757858642865E-01  1.549554415702E-01
     39 T   1 H     3.450445584298E-01  1.082629340005E-01 -2.242141357135E-01
     40 T   1 H    -1.549554415702E-01 -3.917370659995E-01  2.757858642865E-01
     41 T   1 H     1.082629340005E-01 -2.242141357135E-01  3.450445584298E-01
     42 T   1 H    -3.917370659995E-01  2.757858642865E-01 -1.549554415702E-01
     43 T   1 H     3.450445584298E-01 -1.082629340005E-01  2.242141357135E-01
     44 T   1 H    -1.549554415702E-01  3.917370659995E-01 -2.757858642865E-01
     45 T   1 H    -1.082629340005E-01  2.242141357135E-01  3.450445584298E-01
     46 T   1 H     3.917370659995E-01 -2.757858642865E-01 -1.549554415702E-01
     47 T   1 H    -3.450445584298E-01 -1.082629340005E-01 -2.242141357135E-01
     48 T   1 H     1.549554415702E-01  3.917370659995E-01  2.757858642865E-01
     49 T   1 H     5.422551473683E-02  4.164783063562E-01  5.289971870179E-02
     50 T   1 H    -4.457744852632E-01 -8.352169364380E-02 -4.471002812982E-01
     51 T   1 H    -5.422551473683E-02 -4.164783063562E-01  5.289971870179E-02
     52 T   1 H     4.457744852632E-01  8.352169364380E-02 -4.471002812982E-01
     53 T   1 H     5.422551473683E-02 -4.164783063562E-01 -5.289971870179E-02
     54 T   1 H    -4.457744852632E-01  8.352169364380E-02  4.471002812982E-01
     55 T   1 H    -5.422551473683E-02  4.164783063562E-01 -5.289971870179E-02
     56 T   1 H     4.457744852632E-01 -8.352169364380E-02  4.471002812982E-01
     57 T   1 H     5.289971870179E-02  5.422551473683E-02  4.164783063562E-01
     58 T   1 H    -4.471002812982E-01 -4.457744852632E-01 -8.352169364380E-02
     59 T   1 H     4.164783063562E-01  5.289971870179E-02  5.422551473683E-02
     60 T   1 H    -8.352169364380E-02 -4.471002812982E-01 -4.457744852632E-01
     61 T   1 H    -5.289971870179E-02 -5.422551473683E-02  4.164783063562E-01
     62 T   1 H     4.471002812982E-01  4.457744852632E-01 -8.352169364380E-02
     63 T   1 H    -4.164783063562E-01  5.289971870179E-02 -5.422551473683E-02
     64 T   1 H     8.352169364380E-02 -4.471002812982E-01  4.457744852632E-01
     65 T   1 H     5.289971870179E-02 -5.422551473683E-02 -4.164783063562E-01
     66 T   1 H    -4.471002812982E-01  4.457744852632E-01  8.352169364380E-02
     67 T   1 H    -4.164783063562E-01 -5.289971870179E-02  5.422551473683E-02
     68 T   1 H     8.352169364380E-02  4.471002812982E-01 -4.457744852632E-01
     69 T   1 H    -5.289971870179E-02  5.422551473683E-02 -4.164783063562E-01
     70 T   1 H     4.471002812982E-01 -4.457744852632E-01  8.352169364380E-02
     71 T   1 H     4.164783063562E-01 -5.289971870179E-02 -5.422551473683E-02
     72 T   1 H    -8.352169364380E-02  4.471002812982E-01  4.457744852632E-01
     73 T   1 H     1.501303392889E-01  3.819851548667E-01  7.538886998623E-02
     74 T   1 H    -3.498696607111E-01 -1.180148451333E-01 -4.246111300138E-01
     75 T   1 H    -1.501303392889E-01 -3.819851548667E-01  7.538886998623E-02
     76 T   1 H     3.498696607111E-01  1.180148451333E-01 -4.246111300138E-01
     77 T   1 H     1.501303392889E-01 -3.819851548667E-01 -7.538886998623E-02
     78 T   1 H    -3.498696607111E-01  1.180148451333E-01  4.246111300138E-01
     79 T   1 H    -1.501303392889E-01  3.819851548667E-01 -7.538886998623E-02
     80 T   1 H     3.498696607111E-01 -1.180148451333E-01  4.246111300138E-01
     81 T   1 H     7.538886998623E-02  1.501303392889E-01  3.819851548667E-01
     82 T   1 H    -4.246111300138E-01 -3.498696607111E-01 -1.180148451333E-01
     83 T   1 H     3.819851548667E-01  7.538886998623E-02  1.501303392889E-01
     84 T   1 H    -1.180148451333E-01 -4.246111300138E-01 -3.498696607111E-01
     85 T   1 H    -7.538886998623E-02 -1.501303392889E-01  3.819851548667E-01
     86 T   1 H     4.246111300138E-01  3.498696607111E-01 -1.180148451333E-01
     87 T   1 H    -3.819851548667E-01  7.538886998623E-02 -1.501303392889E-01
     88 T   1 H     1.180148451333E-01 -4.246111300138E-01  3.498696607111E-01
     89 T   1 H     7.538886998623E-02 -1.501303392889E-01 -3.819851548667E-01
     90 T   1 H    -4.246111300138E-01  3.498696607111E-01  1.180148451333E-01
     91 T   1 H    -3.819851548667E-01 -7.538886998623E-02  1.501303392889E-01
     92 T   1 H     1.180148451333E-01  4.246111300138E-01 -3.498696607111E-01
     93 T   1 H    -7.538886998623E-02  1.501303392889E-01 -3.819851548667E-01
     94 T   1 H     4.246111300138E-01 -3.498696607111E-01  1.180148451333E-01
     95 T   1 H     3.819851548667E-01 -7.538886998623E-02 -1.501303392889E-01
     96 T   1 H    -1.180148451333E-01  4.246111300138E-01  3.498696607111E-01
     97 T   1 H     7.587826048348E-02  3.817818404958E-01  1.492552692018E-01
     98 T   1 H    -4.241217395165E-01 -1.182181595042E-01 -3.507447307982E-01
     99 T   1 H    -7.587826048348E-02 -3.817818404958E-01  1.492552692018E-01
    100 T   1 H     4.241217395165E-01  1.182181595042E-01 -3.507447307982E-01
    101 T   1 H     7.587826048348E-02 -3.817818404958E-01 -1.492552692018E-01
    102 T   1 H    -4.241217395165E-01  1.182181595042E-01  3.507447307982E-01
    103 T   1 H    -7.587826048348E-02  3.817818404958E-01 -1.492552692018E-01
    104 T   1 H     4.241217395165E-01 -1.182181595042E-01  3.507447307982E-01
    105 T   1 H     1.492552692018E-01  7.587826048348E-02  3.817818404958E-01
    106 T   1 H    -3.507447307982E-01 -4.241217395165E-01 -1.182181595042E-01
    107 T   1 H     3.817818404958E-01  1.492552692018E-01  7.587826048348E-02
    108 T   1 H    -1.182181595042E-01 -3.507447307982E-01 -4.241217395165E-01
    109 T   1 H    -1.492552692018E-01 -7.587826048348E-02  3.817818404958E-01
    110 T   1 H     3.507447307982E-01  4.241217395165E-01 -1.182181595042E-01
    111 T   1 H    -3.817818404958E-01  1.492552692018E-01 -7.587826048348E-02
    112 T   1 H     1.182181595042E-01 -3.507447307982E-01  4.241217395165E-01
    113 T   1 H     1.492552692018E-01 -7.587826048348E-02 -3.817818404958E-01
    114 T   1 H    -3.507447307982E-01  4.241217395165E-01  1.182181595042E-01
    115 T   1 H    -3.817818404958E-01 -1.492552692018E-01  7.587826048348E-02
    116 T   1 H     1.182181595042E-01  3.507447307982E-01 -4.241217395165E-01
    117 T   1 H    -1.492552692018E-01  7.587826048348E-02 -3.817818404958E-01
    118 T   1 H     3.507447307982E-01 -4.241217395165E-01  1.182181595042E-01
    119 T   1 H     3.817818404958E-01 -1.492552692018E-01 -7.587826048348E-02
    120 T   1 H    -1.182181595042E-01  3.507447307982E-01  4.241217395165E-01
    121 T  30 ZN    6.938893903907E-18 -5.000000000000E-01  2.494385412709E-01
    122 T  30 ZN   -5.000000000000E-01  0.000000000000E+00 -2.505614587291E-01
    123 T  30 ZN    0.000000000000E+00 -5.000000000000E-01 -2.494385412709E-01
    124 T  30 ZN   -5.000000000000E-01  0.000000000000E+00  2.505614587291E-01
    125 T  30 ZN    2.494385412709E-01  3.876686436996E-17 -5.000000000000E-01
    126 T  30 ZN   -2.505614587291E-01 -5.000000000000E-01  0.000000000000E+00
    127 T  30 ZN   -5.000000000000E-01  2.494385412709E-01 -1.255374720752E-17
    128 T  30 ZN    0.000000000000E+00 -2.505614587291E-01 -5.000000000000E-01
    129 T  30 ZN   -2.494385412709E-01  3.987248711736E-17 -5.000000000000E-01
    130 T  30 ZN    2.505614587291E-01 -5.000000000000E-01  0.000000000000E+00
    131 T  30 ZN   -5.000000000000E-01 -2.494385412709E-01 -1.520182840811E-17
    132 T  30 ZN    0.000000000000E+00  2.505614587291E-01 -5.000000000000E-01
    133 T   6 C     1.236496572231E-01  4.961496370084E-01  1.230624678632E-01
    134 T   6 C    -3.763503427769E-01 -3.850362991600E-03 -3.769375321368E-01
    135 T   6 C    -1.236496572231E-01 -4.961496370084E-01  1.230624678632E-01
    136 T   6 C     3.763503427769E-01  3.850362991600E-03 -3.769375321368E-01
    137 T   6 C     1.236496572231E-01 -4.961496370084E-01 -1.230624678632E-01
    138 T   6 C    -3.763503427769E-01  3.850362991600E-03  3.769375321368E-01
    139 T   6 C    -1.236496572231E-01  4.961496370084E-01 -1.230624678632E-01
    140 T   6 C     3.763503427769E-01 -3.850362991600E-03  3.769375321368E-01
    141 T   6 C     1.230624678632E-01  1.236496572231E-01  4.961496370084E-01
    142 T   6 C    -3.769375321368E-01 -3.763503427769E-01 -3.850362991600E-03
    143 T   6 C     4.961496370084E-01  1.230624678632E-01  1.236496572231E-01
    144 T   6 C    -3.850362991600E-03 -3.769375321368E-01 -3.763503427769E-01
    145 T   6 C    -1.230624678632E-01 -1.236496572231E-01  4.961496370084E-01
    146 T   6 C     3.769375321368E-01  3.763503427769E-01 -3.850362991600E-03
    147 T   6 C    -4.961496370084E-01  1.230624678632E-01 -1.236496572231E-01
    148 T   6 C     3.850362991600E-03 -3.769375321368E-01  3.763503427769E-01
    149 T   6 C     1.230624678632E-01 -1.236496572231E-01 -4.961496370084E-01
    150 T   6 C    -3.769375321368E-01  3.763503427769E-01  3.850362991600E-03
    151 T   6 C    -4.961496370084E-01 -1.230624678632E-01  1.236496572231E-01
    152 T   6 C     3.850362991600E-03  3.769375321368E-01 -3.763503427769E-01
    153 T   6 C    -1.230624678632E-01  1.236496572231E-01 -4.961496370084E-01
    154 T   6 C     3.769375321368E-01 -3.763503427769E-01  3.850362991600E-03
    155 T   6 C     4.961496370084E-01 -1.230624678632E-01 -1.236496572231E-01
    156 T   6 C    -3.850362991600E-03  3.769375321368E-01  3.763503427769E-01
    157 T   6 C     1.257639241515E-01 -3.905899423537E-01  1.824476519917E-01
    158 T   6 C    -3.742360758485E-01  1.094100576463E-01 -3.175523480083E-01
    159 T   6 C    -1.257639241515E-01  3.905899423537E-01  1.824476519917E-01
    160 T   6 C     3.742360758485E-01 -1.094100576463E-01 -3.175523480083E-01
    161 T   6 C     1.257639241515E-01  3.905899423537E-01 -1.824476519917E-01
    162 T   6 C    -3.742360758485E-01 -1.094100576463E-01  3.175523480083E-01
    163 T   6 C    -1.257639241515E-01 -3.905899423537E-01 -1.824476519917E-01
    164 T   6 C     3.742360758485E-01  1.094100576463E-01  3.175523480083E-01
    165 T   6 C     1.824476519917E-01  1.257639241515E-01 -3.905899423537E-01
    166 T   6 C    -3.175523480083E-01 -3.742360758485E-01  1.094100576463E-01
    167 T   6 C    -3.905899423537E-01  1.824476519917E-01  1.257639241515E-01
    168 T   6 C     1.094100576463E-01 -3.175523480083E-01 -3.742360758485E-01
    169 T   6 C    -1.824476519917E-01 -1.257639241515E-01 -3.905899423537E-01
    170 T   6 C     3.175523480083E-01  3.742360758485E-01  1.094100576463E-01
    171 T   6 C     3.905899423537E-01  1.824476519917E-01 -1.257639241515E-01
    172 T   6 C    -1.094100576463E-01 -3.175523480083E-01  3.742360758485E-01
    173 T   6 C     1.824476519917E-01 -1.257639241515E-01  3.905899423537E-01
    174 T   6 C    -3.175523480083E-01  3.742360758485E-01 -1.094100576463E-01
    175 T   6 C     3.905899423537E-01 -1.824476519917E-01  1.257639241515E-01
    176 T   6 C    -1.094100576463E-01  3.175523480083E-01 -3.742360758485E-01
    177 T   6 C    -1.824476519917E-01  1.257639241515E-01  3.905899423537E-01
    178 T   6 C     3.175523480083E-01 -3.742360758485E-01 -1.094100576463E-01
    179 T   6 C    -3.905899423537E-01 -1.824476519917E-01 -1.257639241515E-01
    180 T   6 C     1.094100576463E-01  3.175523480083E-01  3.742360758485E-01
    181 T   6 C     9.960595713576E-02  4.146378986853E-01  9.887414978299E-02
    182 T   6 C    -4.003940428642E-01 -8.536210131470E-02 -4.011258502170E-01
    183 T   6 C    -9.960595713576E-02 -4.146378986853E-01  9.887414978299E-02
    184 T   6 C     4.003940428642E-01  8.536210131470E-02 -4.011258502170E-01
    185 T   6 C     9.960595713576E-02 -4.146378986853E-01 -9.887414978299E-02
    186 T   6 C    -4.003940428642E-01  8.536210131470E-02  4.011258502170E-01
    187 T   6 C    -9.960595713576E-02  4.146378986853E-01 -9.887414978299E-02
    188 T   6 C     4.003940428642E-01 -8.536210131470E-02  4.011258502170E-01
    189 T   6 C     9.887414978299E-02  9.960595713576E-02  4.146378986853E-01
    190 T   6 C    -4.011258502170E-01 -4.003940428642E-01 -8.536210131470E-02
    191 T   6 C     4.146378986853E-01  9.887414978299E-02  9.960595713576E-02
    192 T   6 C    -8.536210131470E-02 -4.011258502170E-01 -4.003940428642E-01
    193 T   6 C    -9.887414978299E-02 -9.960595713576E-02  4.146378986853E-01
    194 T   6 C     4.011258502170E-01  4.003940428642E-01 -8.536210131470E-02
    195 T   6 C    -4.146378986853E-01  9.887414978299E-02 -9.960595713576E-02
    196 T   6 C     8.536210131470E-02 -4.011258502170E-01  4.003940428642E-01
    197 T   6 C     9.887414978299E-02 -9.960595713576E-02 -4.146378986853E-01
    198 T   6 C    -4.011258502170E-01  4.003940428642E-01  8.536210131470E-02
    199 T   6 C    -4.146378986853E-01 -9.887414978299E-02  9.960595713576E-02
    200 T   6 C     8.536210131470E-02  4.011258502170E-01 -4.003940428642E-01
    201 T   6 C    -9.887414978299E-02  9.960595713576E-02 -4.146378986853E-01
    202 T   6 C     4.011258502170E-01 -4.003940428642E-01  8.536210131470E-02
    203 T   6 C     4.146378986853E-01 -9.887414978299E-02 -9.960595713576E-02
    204 T   6 C    -8.536210131470E-02  4.011258502170E-01  4.003940428642E-01
    205 T   7 N     8.877102100184E-02 -4.628132894226E-01  1.809884698279E-01
    206 T   7 N    -4.112289789982E-01  3.718671057740E-02 -3.190115301721E-01
    207 T   7 N    -8.877102100184E-02  4.628132894226E-01  1.809884698279E-01
    208 T   7 N     4.112289789982E-01 -3.718671057740E-02 -3.190115301721E-01
    209 T   7 N     8.877102100184E-02  4.628132894226E-01 -1.809884698279E-01
    210 T   7 N    -4.112289789982E-01 -3.718671057740E-02  3.190115301721E-01
    211 T   7 N    -8.877102100184E-02 -4.628132894226E-01 -1.809884698279E-01
    212 T   7 N     4.112289789982E-01  3.718671057740E-02  3.190115301721E-01
    213 T   7 N     1.809884698279E-01  8.877102100184E-02 -4.628132894226E-01
    214 T   7 N    -3.190115301721E-01 -4.112289789982E-01  3.718671057740E-02
    215 T   7 N    -4.628132894226E-01  1.809884698279E-01  8.877102100184E-02
    216 T   7 N     3.718671057740E-02 -3.190115301721E-01 -4.112289789982E-01
    217 T   7 N    -1.809884698279E-01 -8.877102100184E-02 -4.628132894226E-01
    218 T   7 N     3.190115301721E-01  4.112289789982E-01  3.718671057740E-02
    219 T   7 N     4.628132894226E-01  1.809884698279E-01 -8.877102100184E-02
    220 T   7 N    -3.718671057740E-02 -3.190115301721E-01  4.112289789982E-01
    221 T   7 N     1.809884698279E-01 -8.877102100184E-02  4.628132894226E-01
    222 T   7 N    -3.190115301721E-01  4.112289789982E-01 -3.718671057740E-02
    223 T   7 N     4.628132894226E-01 -1.809884698279E-01  8.877102100184E-02
    224 T   7 N    -3.718671057740E-02  3.190115301721E-01 -4.112289789982E-01
    225 T   7 N    -1.809884698279E-01  8.877102100184E-02  4.628132894226E-01
    226 T   7 N     3.190115301721E-01 -4.112289789982E-01 -3.718671057740E-02
    227 T   7 N    -4.628132894226E-01 -1.809884698279E-01 -8.877102100184E-02
    228 T   7 N     3.718671057740E-02  3.190115301721E-01  4.112289789982E-01
    229 T   6 C     1.830626459009E-01 -3.906137408985E-01  1.255871073985E-01
    230 T   6 C    -3.169373540991E-01  1.093862591015E-01 -3.744128926015E-01
    231 T   6 C    -1.830626459009E-01  3.906137408985E-01  1.255871073985E-01
    232 T   6 C     3.169373540991E-01 -1.093862591015E-01 -3.744128926015E-01
    233 T   6 C     1.830626459009E-01  3.906137408985E-01 -1.255871073985E-01
    234 T   6 C    -3.169373540991E-01 -1.093862591015E-01  3.744128926015E-01
    235 T   6 C    -1.830626459009E-01 -3.906137408985E-01 -1.255871073985E-01
    236 T   6 C     3.169373540991E-01  1.093862591015E-01  3.744128926015E-01
    237 T   6 C     1.255871073985E-01  1.830626459009E-01 -3.906137408985E-01
    238 T   6 C    -3.744128926015E-01 -3.169373540991E-01  1.093862591015E-01
    239 T   6 C    -3.906137408985E-01  1.255871073985E-01  1.830626459009E-01
    240 T   6 C     1.093862591015E-01 -3.744128926015E-01 -3.169373540991E-01
    241 T   6 C    -1.255871073985E-01 -1.830626459009E-01 -3.906137408985E-01
    242 T   6 C     3.744128926015E-01  3.169373540991E-01  1.093862591015E-01
    243 T   6 C     3.906137408985E-01  1.255871073985E-01 -1.830626459009E-01
    244 T   6 C    -1.093862591015E-01 -3.744128926015E-01  3.169373540991E-01
    245 T   6 C     1.255871073985E-01 -1.830626459009E-01  3.906137408985E-01
    246 T   6 C    -3.744128926015E-01  3.169373540991E-01 -1.093862591015E-01
    247 T   6 C     3.906137408985E-01 -1.255871073985E-01  1.830626459009E-01
    248 T   6 C    -1.093862591015E-01  3.744128926015E-01 -3.169373540991E-01
    249 T   6 C    -1.255871073985E-01  1.830626459009E-01  3.906137408985E-01
    250 T   6 C     3.744128926015E-01 -3.169373540991E-01 -1.093862591015E-01
    251 T   6 C    -3.906137408985E-01 -1.255871073985E-01 -1.830626459009E-01
    252 T   6 C     1.093862591015E-01  3.744128926015E-01  3.169373540991E-01
    253 T   7 N     1.818670800922E-01 -4.628558735411E-01  8.861999400759E-02
    254 T   7 N    -3.181329199078E-01  3.714412645890E-02 -4.113800059924E-01
    255 T   7 N    -1.818670800922E-01  4.628558735411E-01  8.861999400759E-02
    256 T   7 N     3.181329199078E-01 -3.714412645890E-02 -4.113800059924E-01
    257 T   7 N     1.818670800922E-01  4.628558735411E-01 -8.861999400759E-02
    258 T   7 N    -3.181329199078E-01 -3.714412645890E-02  4.113800059924E-01
    259 T   7 N    -1.818670800922E-01 -4.628558735411E-01 -8.861999400759E-02
    260 T   7 N     3.181329199078E-01  3.714412645890E-02  4.113800059924E-01
    261 T   7 N     8.861999400759E-02  1.818670800922E-01 -4.628558735411E-01
    262 T   7 N    -4.113800059924E-01 -3.181329199078E-01  3.714412645890E-02
    263 T   7 N    -4.628558735411E-01  8.861999400759E-02  1.818670800922E-01
    264 T   7 N     3.714412645890E-02 -4.113800059924E-01 -3.181329199078E-01
    265 T   7 N    -8.861999400759E-02 -1.818670800922E-01 -4.628558735411E-01
    266 T   7 N     4.113800059924E-01  3.181329199078E-01  3.714412645890E-02
    267 T   7 N     4.628558735411E-01  8.861999400759E-02 -1.818670800922E-01
    268 T   7 N    -3.714412645890E-02 -4.113800059924E-01  3.181329199078E-01
    269 T   7 N     8.861999400759E-02 -1.818670800922E-01  4.628558735411E-01
    270 T   7 N    -4.113800059924E-01  3.181329199078E-01 -3.714412645890E-02
    271 T   7 N     4.628558735411E-01 -8.861999400759E-02  1.818670800922E-01
    272 T   7 N    -3.714412645890E-02  4.113800059924E-01 -3.181329199078E-01
    273 T   7 N    -8.861999400759E-02  1.818670800922E-01  4.628558735411E-01
    274 T   7 N     4.113800059924E-01 -3.181329199078E-01 -3.714412645890E-02
    275 T   7 N    -4.628558735411E-01 -8.861999400759E-02 -1.818670800922E-01
    276 T   7 N     3.714412645890E-02  4.113800059924E-01  3.181329199078E-01

 T = ATOM BELONGING TO THE ASYMMETRIC UNIT

 ****    1 SYMMOPS - TRANSLATORS IN FRACTIONAL UNITS
 **** MATRICES AND TRANSLATORS IN THE CRYSTALLOGRAPHIC REFERENCE FRAME
   V INV                    ROTATION MATRICES                   TRANSLATORS
   1   1  1.00  0.00  0.00  0.00  1.00  0.00  0.00  0.00  1.00  0.00  0.00  0.00

 DIRECT LATTICE VECTORS CARTESIAN COMPONENTS (ANGSTROM)
          X                    Y                    Z
   0.169414880000E+02   0.000000000000E+00   0.000000000000E+00
   0.000000000000E+00   0.169414880000E+02   0.000000000000E+00
   0.000000000000E+00   0.000000000000E+00   0.169414880000E+02


 CARTESIAN COORDINATES - PRIMITIVE CELL
 *******************************************************************************
 *      ATOM          X(ANGSTROM)         Y(ANGSTROM)         Z(ANGSTROM)
 *******************************************************************************
    1     1 H     1.832270255431E+00 -5.844949105641E+00  3.785789428527E+00
    2     1 H    -6.638473744569E+00  2.625794894359E+00 -4.684954571473E+00
    3     1 H    -1.832270255431E+00  5.844949105641E+00  3.785789428527E+00
    4     1 H     6.638473744569E+00 -2.625794894359E+00 -4.684954571473E+00
    5     1 H     1.832270255431E+00  5.844949105641E+00 -3.785789428527E+00
    6     1 H    -6.638473744569E+00 -2.625794894359E+00  4.684954571473E+00
    7     1 H    -1.832270255431E+00 -5.844949105641E+00 -3.785789428527E+00
    8     1 H     6.638473744569E+00  2.625794894359E+00  4.684954571473E+00
    9     1 H     3.785789428527E+00  1.832270255431E+00 -5.844949105641E+00
   10     1 H    -4.684954571473E+00 -6.638473744569E+00  2.625794894359E+00
   11     1 H    -5.844949105641E+00  3.785789428527E+00  1.832270255431E+00
   12     1 H     2.625794894359E+00 -4.684954571473E+00 -6.638473744569E+00
   13     1 H    -3.785789428527E+00 -1.832270255431E+00 -5.844949105641E+00
   14     1 H     4.684954571473E+00  6.638473744569E+00  2.625794894359E+00
   15     1 H     5.844949105641E+00  3.785789428527E+00 -1.832270255431E+00
   16     1 H    -2.625794894359E+00 -4.684954571473E+00  6.638473744569E+00
   17     1 H     3.785789428527E+00 -1.832270255431E+00  5.844949105641E+00
   18     1 H    -4.684954571473E+00  6.638473744569E+00 -2.625794894359E+00
   19     1 H     5.844949105641E+00 -3.785789428527E+00  1.832270255431E+00
   20     1 H    -2.625794894359E+00  4.684954571473E+00 -6.638473744569E+00
   21     1 H    -3.785789428527E+00  1.832270255431E+00  5.844949105641E+00
   22     1 H     4.684954571473E+00 -6.638473744569E+00 -2.625794894359E+00
   23     1 H    -5.844949105641E+00 -3.785789428527E+00 -1.832270255431E+00
   24     1 H     2.625794894359E+00  4.684954571473E+00  6.638473744569E+00
   25     1 H     3.798521089621E+00 -5.845568246104E+00  1.834135197214E+00
   26     1 H    -4.672222910379E+00  2.625175753896E+00 -6.636608802786E+00
   27     1 H    -3.798521089621E+00  5.845568246104E+00  1.834135197214E+00
   28     1 H     4.672222910379E+00 -2.625175753896E+00 -6.636608802786E+00
   29     1 H     3.798521089621E+00  5.845568246104E+00 -1.834135197214E+00
   30     1 H    -4.672222910379E+00 -2.625175753896E+00  6.636608802786E+00
   31     1 H    -3.798521089621E+00 -5.845568246104E+00 -1.834135197214E+00
   32     1 H     4.672222910379E+00  2.625175753896E+00  6.636608802786E+00
   33     1 H     1.834135197214E+00  3.798521089621E+00 -5.845568246104E+00
   34     1 H    -6.636608802786E+00 -4.672222910379E+00  2.625175753896E+00
   35     1 H    -5.845568246104E+00  1.834135197214E+00  3.798521089621E+00
   36     1 H     2.625175753896E+00 -6.636608802786E+00 -4.672222910379E+00
   37     1 H    -1.834135197214E+00 -3.798521089621E+00 -5.845568246104E+00
   38     1 H     6.636608802786E+00  4.672222910379E+00  2.625175753896E+00
   39     1 H     5.845568246104E+00  1.834135197214E+00 -3.798521089621E+00
   40     1 H    -2.625175753896E+00 -6.636608802786E+00  4.672222910379E+00
   41     1 H     1.834135197214E+00 -3.798521089621E+00  5.845568246104E+00
   42     1 H    -6.636608802786E+00  4.672222910379E+00 -2.625175753896E+00
   43     1 H     5.845568246104E+00 -1.834135197214E+00  3.798521089621E+00
   44     1 H    -2.625175753896E+00  6.636608802786E+00 -4.672222910379E+00
   45     1 H    -1.834135197214E+00  3.798521089621E+00  5.845568246104E+00
   46     1 H     6.636608802786E+00 -4.672222910379E+00 -2.625175753896E+00
   47     1 H    -5.845568246104E+00 -1.834135197214E+00 -3.798521089621E+00
   48     1 H     2.625175753896E+00  6.636608802786E+00  4.672222910379E+00
   49     1 H     9.186609072078E-01  7.055762229394E+00  8.961999495898E-01
   50     1 H    -7.552083092792E+00 -1.414981770606E+00 -7.574544050410E+00
   51     1 H    -9.186609072078E-01 -7.055762229394E+00  8.961999495898E-01
   52     1 H     7.552083092792E+00  1.414981770606E+00 -7.574544050410E+00
   53     1 H     9.186609072078E-01 -7.055762229394E+00 -8.961999495898E-01
   54     1 H    -7.552083092792E+00  1.414981770606E+00  7.574544050410E+00
   55     1 H    -9.186609072078E-01  7.055762229394E+00 -8.961999495898E-01
   56     1 H     7.552083092792E+00 -1.414981770606E+00  7.574544050410E+00
   57     1 H     8.961999495898E-01  9.186609072078E-01  7.055762229394E+00
   58     1 H    -7.574544050410E+00 -7.552083092792E+00 -1.414981770606E+00
   59     1 H     7.055762229394E+00  8.961999495898E-01  9.186609072078E-01
   60     1 H    -1.414981770606E+00 -7.574544050410E+00 -7.552083092792E+00
   61     1 H    -8.961999495898E-01 -9.186609072078E-01  7.055762229394E+00
   62     1 H     7.574544050410E+00  7.552083092792E+00 -1.414981770606E+00
   63     1 H    -7.055762229394E+00  8.961999495898E-01 -9.186609072078E-01
   64     1 H     1.414981770606E+00 -7.574544050410E+00  7.552083092792E+00
   65     1 H     8.961999495898E-01 -9.186609072078E-01 -7.055762229394E+00
   66     1 H    -7.574544050410E+00  7.552083092792E+00  1.414981770606E+00
   67     1 H    -7.055762229394E+00 -8.961999495898E-01  9.186609072078E-01
   68     1 H     1.414981770606E+00  7.574544050410E+00 -7.552083092792E+00
   69     1 H    -8.961999495898E-01  9.186609072078E-01 -7.055762229394E+00
   70     1 H     7.574544050410E+00 -7.552083092792E+00  1.414981770606E+00
   71     1 H     7.055762229394E+00 -8.961999495898E-01 -9.186609072078E-01
   72     1 H    -1.414981770606E+00  7.574544050410E+00  7.552083092792E+00
   73     1 H     2.543431341499E+00  6.471396917352E+00  1.277199636205E+00
   74     1 H    -5.927312658501E+00 -1.999347082648E+00 -7.193544363795E+00
   75     1 H    -2.543431341499E+00 -6.471396917352E+00  1.277199636205E+00
   76     1 H     5.927312658501E+00  1.999347082648E+00 -7.193544363795E+00
   77     1 H     2.543431341499E+00 -6.471396917352E+00 -1.277199636205E+00
   78     1 H    -5.927312658501E+00  1.999347082648E+00  7.193544363795E+00
   79     1 H    -2.543431341499E+00  6.471396917352E+00 -1.277199636205E+00
   80     1 H     5.927312658501E+00 -1.999347082648E+00  7.193544363795E+00
   81     1 H     1.277199636205E+00  2.543431341499E+00  6.471396917352E+00
   82     1 H    -7.193544363795E+00 -5.927312658501E+00 -1.999347082648E+00
   83     1 H     6.471396917352E+00  1.277199636205E+00  2.543431341499E+00
   84     1 H    -1.999347082648E+00 -7.193544363795E+00 -5.927312658501E+00
   85     1 H    -1.277199636205E+00 -2.543431341499E+00  6.471396917352E+00
   86     1 H     7.193544363795E+00  5.927312658501E+00 -1.999347082648E+00
   87     1 H    -6.471396917352E+00  1.277199636205E+00 -2.543431341499E+00
   88     1 H     1.999347082648E+00 -7.193544363795E+00  5.927312658501E+00
   89     1 H     1.277199636205E+00 -2.543431341499E+00 -6.471396917352E+00
   90     1 H    -7.193544363795E+00  5.927312658501E+00  1.999347082648E+00
   91     1 H    -6.471396917352E+00 -1.277199636205E+00  2.543431341499E+00
   92     1 H     1.999347082648E+00  7.193544363795E+00 -5.927312658501E+00
   93     1 H    -1.277199636205E+00  2.543431341499E+00 -6.471396917352E+00
   94     1 H     7.193544363795E+00 -5.927312658501E+00  1.999347082648E+00
   95     1 H     6.471396917352E+00 -1.277199636205E+00 -2.543431341499E+00
   96     1 H    -1.999347082648E+00  7.193544363795E+00  5.927312658501E+00
   97     1 H     1.285490639442E+00  6.467952469378E+00  2.528606352119E+00
   98     1 H    -7.185253360558E+00 -2.002791530622E+00 -5.942137647881E+00
[...]
 276 N    1     1.3750     2.5983  252 C    0 0 0
 276 N    1     2.0011     3.7816  121 ZN   0 0 0
 276 N    1     2.1469     4.0570   48 H    0 0 0
 276 N    1     2.2201     4.1955  180 C    0 0 0
 276 N    1     2.2218     4.1986  228 N    0 0 0


 SYMMETRY ALLOWED INTERNAL DEGREE(S) OF FREEDOM: 825
 TTTTTTTTTTTTTTTTTTTTTTTTTTTTTT SYMM        TELAPSE        8.84 TCPU        8.80
 TTTTTTTTTTTTTTTTTTTTTTTTTTTTTT INT_SCREEN  TELAPSE        9.23 TCPU        9.19

 DFT PARAMETERS

     ATOM       ELECTRONS   NET CHARGE   R(ANGSTROM)
   1   1  H       1.0000      0.0000     1.11000000
 121  30  ZN     30.0000      0.0000     1.37000000
 133   6  C       6.0000      0.0000     0.77000000
 205   7  N       7.0000      0.0000     0.74000000

 SIZE OF GRID=    7843368
 TTTTTTTTTTTTTTTTTTTTTTTTTTTTTT MAKE_GRID2  TELAPSE       36.28 TCPU       36.23
 BECKE WEIGHT FUNCTION
 RADSAFE =     2.00
 TOLERANCES - DENSITY:10**- 6; POTENTIAL:10**- 9; GRID WGT:10**-14

 RADIAL INTEGRATION  - INTERVALS (POINTS,UPPER LIMIT):            1( 75,  4.0*R)

 ANGULAR INTEGRATION - INTERVALS (ACCURACY LEVEL [N. POINTS] UPPER LIMIT):
  1(  4[  86]   0.2)  2(  8[ 194]   0.5)  3( 12[ 350]   0.9)  4( 16[ 974]   3.5)
  5( 12[ 350]9999.0)
 TTTTTTTTTTTTTTTTTTTTTTTTTTTTTT INT_CALC    TELAPSE       36.73 TCPU       36.69
 EEEEEEEEEE INT_CALC TERMINATION  DATE 04 09 2024 TIME 10:17:16.7

 *******************************************************************************
 ZIF-8                                                                           
 CRYSTAL - SCF - TYPE OF CALCULATION :  RESTRICTED CLOSED SHELL
 *******************************************************************************

 CAPPA:IS1  3;IS2  3;IS3  3; K PTS MONK NET  14; SYMMOPS:K SPACE   2;G SPACE   1

 TTTTTTTTTTTTTTTTTTTTTTTTTTTTTT SDIK        TELAPSE       58.12 TCPU       58.07

 AAAAAAAAAAAAAAAAAAAAAAAAAAAAAAAAAAAAAAAAAAAAAAAAAAAAAAAAAAAAAAAAAAAAAAAAAAAAAAA
         ATOMIC WAVEFUNCTION(S)


 NUCLEAR CHARGE  1.0  SYMMETRY SPECIES            S
 N. ELECTRONS    1.0  NUMBER OF PRIMITIVE GTOS    4
                      NUMBER OF CONTRACTED GTOS   2
                      NUMBER OF CLOSED SHELLS     0
                      OPEN SHELL OCCUPATION       1

  ZNUC  SCFIT    TOTAL HF ENERGY   KINETIC ENERGY   VIRIAL THEOREM ACCURACY
   1.0     1    -4.977266687E-01  5.190767460E-01 -1.958869132E+00  0.0E+00

 NUCLEAR CHARGE 30.0  SYMMETRY SPECIES            S    P    D
 N. ELECTRONS   30.0  NUMBER OF PRIMITIVE GTOS   14    9    5
                      NUMBER OF CONTRACTED GTOS   5    3    2
                      NUMBER OF CLOSED SHELLS     4    2    1
                      OPEN SHELL OCCUPATION       0    0    0

  ZNUC  SCFIT    TOTAL HF ENERGY   KINETIC ENERGY   VIRIAL THEOREM ACCURACY
  30.0    11    -1.777513735E+03  1.776592726E+03 -2.000518413E+00  4.2E-06

 NUCLEAR CHARGE  6.0  SYMMETRY SPECIES            S    P
 N. ELECTRONS    6.0  NUMBER OF PRIMITIVE GTOS    8    4
                      NUMBER OF CONTRACTED GTOS   4    2
                      NUMBER OF CLOSED SHELLS     2    0
                      OPEN SHELL OCCUPATION       0    2

  ZNUC  SCFIT    TOTAL HF ENERGY   KINETIC ENERGY   VIRIAL THEOREM ACCURACY
   6.0     9    -3.766704647E+01  3.775180683E+01 -1.997754800E+00  1.1E-06

 NUCLEAR CHARGE  7.0  SYMMETRY SPECIES            S    P
 N. ELECTRONS    7.0  NUMBER OF PRIMITIVE GTOS    8    4
                      NUMBER OF CONTRACTED GTOS   4    2
                      NUMBER OF CLOSED SHELLS     2    0
                      OPEN SHELL OCCUPATION       0    3

  ZNUC  SCFIT    TOTAL HF ENERGY   KINETIC ENERGY   VIRIAL THEOREM ACCURACY
   7.0     9    -5.437948210E+01  5.437948297E+01 -1.999999984E+00  1.2E-06

 AAAAAAAAAAAAAAAAAAAAAAAAAAAAAAAAAAAAAAAAAAAAAAAAAAAAAAAAAAAAAAAAAAAAAAAAAAAAAAA

 CHARGE NORMALIZATION FACTOR   1.00000000
 TOTAL ATOMIC CHARGES:
   1.0000000   1.0000000   1.0000000   1.0000000   1.0000000   1.0000000
   1.0000000   1.0000000   1.0000000   1.0000000   1.0000000   1.0000000
   1.0000000   1.0000000   1.0000000   1.0000000   1.0000000   1.0000000
   1.0000000   1.0000000   1.0000000   1.0000000   1.0000000   1.0000000
   1.0000000   1.0000000   1.0000000   1.0000000   1.0000000   1.0000000
   1.0000000   1.0000000   1.0000000   1.0000000   1.0000000   1.0000000
   1.0000000   1.0000000   1.0000000   1.0000000   1.0000000   1.0000000
   1.0000000   1.0000000   1.0000000   1.0000000   1.0000000   1.0000000
   1.0000000   1.0000000   1.0000000   1.0000000   1.0000000   1.0000000
   1.0000000   1.0000000   1.0000000   1.0000000   1.0000000   1.0000000
   1.0000000   1.0000000   1.0000000   1.0000000   1.0000000   1.0000000
   1.0000000   1.0000000   1.0000000   1.0000000   1.0000000   1.0000000
   1.0000000   1.0000000   1.0000000   1.0000000   1.0000000   1.0000000
   1.0000000   1.0000000   1.0000000   1.0000000   1.0000000   1.0000000
   1.0000000   1.0000000   1.0000000   1.0000000   1.0000000   1.0000000
   1.0000000   1.0000000   1.0000000   1.0000000   1.0000000   1.0000000
   1.0000000   1.0000000   1.0000000   1.0000000   1.0000000   1.0000000
   1.0000000   1.0000000   1.0000000   1.0000000   1.0000000   1.0000000
   1.0000000   1.0000000   1.0000000   1.0000000   1.0000000   1.0000000
   1.0000000   1.0000000   1.0000000   1.0000000   1.0000000   1.0000000
  30.0000000  30.0000000  30.0000000  30.0000000  30.0000000  30.0000000
  30.0000000  30.0000000  30.0000000  30.0000000  30.0000000  30.0000000
   6.0000000   6.0000000   6.0000000   6.0000000   6.0000000   6.0000000
   6.0000000   6.0000000   6.0000000   6.0000000   6.0000000   6.0000000
   6.0000000   6.0000000   6.0000000   6.0000000   6.0000000   6.0000000
   6.0000000   6.0000000   6.0000000   6.0000000   6.0000000   6.0000000
   6.0000000   6.0000000   6.0000000   6.0000000   6.0000000   6.0000000
   6.0000000   6.0000000   6.0000000   6.0000000   6.0000000   6.0000000
   6.0000000   6.0000000   6.0000000   6.0000000   6.0000000   6.0000000
   6.0000000   6.0000000   6.0000000   6.0000000   6.0000000   6.0000000
   6.0000000   6.0000000   6.0000000   6.0000000   6.0000000   6.0000000
   6.0000000   6.0000000   6.0000000   6.0000000   6.0000000   6.0000000
   6.0000000   6.0000000   6.0000000   6.0000000   6.0000000   6.0000000
   6.0000000   6.0000000   6.0000000   6.0000000   6.0000000   6.0000000
   7.0000000   7.0000000   7.0000000   7.0000000   7.0000000   7.0000000
   7.0000000   7.0000000   7.0000000   7.0000000   7.0000000   7.0000000
   7.0000000   7.0000000   7.0000000   7.0000000   7.0000000   7.0000000
   7.0000000   7.0000000   7.0000000   7.0000000   7.0000000   7.0000000
   6.0000000   6.0000000   6.0000000   6.0000000   6.0000000   6.0000000
   6.0000000   6.0000000   6.0000000   6.0000000   6.0000000   6.0000000
   6.0000000   6.0000000   6.0000000   6.0000000   6.0000000   6.0000000
   6.0000000   6.0000000   6.0000000   6.0000000   6.0000000   6.0000000
   7.0000000   7.0000000   7.0000000   7.0000000   7.0000000   7.0000000
   7.0000000   7.0000000   7.0000000   7.0000000   7.0000000   7.0000000
   7.0000000   7.0000000   7.0000000   7.0000000   7.0000000   7.0000000
   7.0000000   7.0000000   7.0000000   7.0000000   7.0000000   7.0000000
 TTTTTTTTTTTTTTTTTTTTTTTTTTTTTT MOQGAD      TELAPSE       58.19 TCPU       58.15
 TTTTTTTTTTTTTTTTTTTTTTTTTTTTTT SHELLXN     TELAPSE      360.61 TCPU      360.45
 TTTTTTTTTTTTTTTTTTTTTTTTTTTTTT MONMO3      TELAPSE      392.53 TCPU      392.37
 NUMERICALLY INTEGRATED DENSITY   1392.0005755048
 TTTTTTTTTTTTTTTTTTTTTTTTTTTTTT NUMDFT      TELAPSE      437.94 TCPU      437.76
 CYC   0 ETOT(AU) -2.773946381335E+04 DETOT -2.77E+04 tst  0.00E+00 PX  1.00E+00
 TTTTTTTTTTTTTTTTTTTTTTTTTTTTTT FDIK        TELAPSE      488.21 TCPU      488.01
 INSULATING STATE
 TOP OF VALENCE BANDS -    BAND    696; K    1; EIG -2.5858045E-01 AU
 BOTTOM OF VIRTUAL BANDS - BAND    697; K   10; EIG -4.9881247E-02 AU
 INDIRECT ENERGY BAND GAP:   5.6790 eV
 BOTTOM OF VIRTUAL BANDS - BAND    697; K    1; EIG -4.9564321E-02 AU
 TTTTTTTTTTTTTTTTTTTTTTTTTTTTTT PDIG        TELAPSE      492.79 TCPU      492.59
 CHARGE NORMALIZATION FACTOR   1.00000000
 TOTAL ATOMIC CHARGES:
   0.8129257   0.8129258   0.8129257   0.8129258   0.8129257   0.8129258
   0.8129257   0.8129258   0.8129257   0.8129258   0.8129257   0.8129258
   0.8129257   0.8129258   0.8129257   0.8129258   0.8129257   0.8129258
   0.8129257   0.8129258   0.8129257   0.8129258   0.8129257   0.8129258
   0.8129076   0.8129076   0.8129076   0.8129076   0.8129076   0.8129076
   0.8129076   0.8129076   0.8129076   0.8129076   0.8129076   0.8129076
   0.8129076   0.8129076   0.8129076   0.8129076   0.8129076   0.8129076
   0.8129076   0.8129076   0.8129076   0.8129076   0.8129076   0.8129076
   0.7502856   0.7502856   0.7502856   0.7502856   0.7502855   0.7502856
   0.7502856   0.7502856   0.7502856   0.7502856   0.7502856   0.7502856
   0.7502856   0.7502856   0.7502856   0.7502856   0.7502856   0.7502856
   0.7502855   0.7502856   0.7502855   0.7502856   0.7502856   0.7502856
   0.7602939   0.7602938   0.7602939   0.7602938   0.7602939   0.7602938
   0.7602939   0.7602938   0.7602939   0.7602938   0.7602939   0.7602938
   0.7602939   0.7602938   0.7602939   0.7602938   0.7602939   0.7602938
   0.7602939   0.7602938   0.7602939   0.7602938   0.7602939   0.7602938
   0.7601698   0.7601698   0.7601698   0.7601698   0.7601698   0.7601698
   0.7601698   0.7601698   0.7601698   0.7601698   0.7601698   0.7601698
   0.7601698   0.7601698   0.7601698   0.7601698   0.7601698   0.7601698
   0.7601698   0.7601698   0.7601698   0.7601698   0.7601698   0.7601698
  28.6284530  28.6284530  28.6284530  28.6284530  28.6284531  28.6284530
  28.6284531  28.6284530  28.6284531  28.6284531  28.6284531  28.6284530
   5.3800138   5.3800139   5.3800138   5.3800139   5.3800138   5.3800139
   5.3800138   5.3800139   5.3800138   5.3800138   5.3800138   5.3800138
   5.3800138   5.3800138   5.3800138   5.3800138   5.3800138   5.3800139
   5.3800138   5.3800138   5.3800138   5.3800139   5.3800138   5.3800138
   6.1247748   6.1247747   6.1247748   6.1247747   6.1247748   6.1247747
   6.1247748   6.1247747   6.1247748   6.1247747   6.1247748   6.1247747
   6.1247748   6.1247747   6.1247748   6.1247747   6.1247748   6.1247747
   6.1247747   6.1247747   6.1247748   6.1247747   6.1247748   6.1247747
   6.8239192   6.8239191   6.8239192   6.8239191   6.8239192   6.8239191
   6.8239192   6.8239191   6.8239192   6.8239191   6.8239192   6.8239191
   6.8239192   6.8239191   6.8239192   6.8239191   6.8239192   6.8239191
   6.8239192   6.8239191   6.8239192   6.8239191   6.8239192   6.8239191
   7.6678778   7.6678778   7.6678778   7.6678778   7.6678778   7.6678778
   7.6678778   7.6678778   7.6678778   7.6678778   7.6678778   7.6678778
   7.6678778   7.6678778   7.6678778   7.6678778   7.6678778   7.6678778
   7.6678778   7.6678778   7.6678778   7.6678778   7.6678778   7.6678778
   6.1246582   6.1246583   6.1246582   6.1246583   6.1246582   6.1246582
   6.1246582   6.1246582   6.1246582   6.1246583   6.1246582   6.1246582
   6.1246582   6.1246582   6.1246582   6.1246583   6.1246582   6.1246582
   6.1246582   6.1246583   6.1246582   6.1246583   6.1246582   6.1246583
   7.6679471   7.6679471   7.6679472   7.6679471   7.6679472   7.6679471
   7.6679471   7.6679471   7.6679472   7.6679471   7.6679471   7.6679472
   7.6679472   7.6679472   7.6679472   7.6679472   7.6679472   7.6679471
   7.6679472   7.6679472   7.6679472   7.6679471   7.6679471   7.6679472
 TTTTTTTTTTTTTTTTTTTTTTTTTTTTTT MOQGAD      TELAPSE      492.87 TCPU      492.67
 TTTTTTTTTTTTTTTTTTTTTTTTTTTTTT SHELLXN     TELAPSE      807.68 TCPU      807.35
 +++ ENERGIES IN A.U. +++
 ::: EXT EL-POLE                                  -9.8707102668284E+03
 ::: EXT EL-SPHEROPOLE                             9.3313831326834E+01
 ::: BIELET ZONE E-E                               2.4171450303628E+04
 ::: TOTAL E-E                                     1.4394053868127E+04
 ::: TOTAL E-N + N-E                              -7.0525727974717E+04
 ::: TOTAL N-N                                     2.2241430708808E+03
 ::: KINETIC ENERGY                                2.7620612469189E+04
 ::: PSEUDO TOTAL   ENERGY                        -2.6286918566521E+04
 ::: VIRIAL COEFFICIENT                            1.0247404004050E+00
 TTTTTTTTTTTTTTTTTTTTTTTTTTTTTT MONMO3      TELAPSE      839.85 TCPU      839.52
 NUMERICALLY INTEGRATED DENSITY   1392.0005647609
 TTTTTTTTTTTTTTTTTTTTTTTTTTTTTT NUMDFT      TELAPSE      885.77 TCPU      885.42
 CYC   1 ETOT(AU) -2.770202796043E+04 DETOT  3.74E+01 tst  0.00E+00 PX  1.00E+00

 == SCF ENDED - TOO MANY CYCLES            E(AU) -2.7702027960431E+04 CYCLES   1


 ENERGY EXPRESSION=HARTREE+FOCK EXCH*0.20000+(BECKE      EXCH)*0.80000+LYP        CORR


 TOTAL ENERGY(DFT)(AU)(  1) -2.7702027960431E+04 DE 3.7E+01 tester 0.0E+00
 TTTTTTTTTTTTTTTTTTTTTTTTTTTTTT EDFT        TELAPSE      885.77 TCPU      885.42
 EIGENVECTORS IN FORTRAN UNIT 10
 TTTTTTTTTTTTTTTTTTTTTTTTTTTTTT END         TELAPSE      887.52 TCPU      887.17
 EEEEEEEEEE TERMINATION  DATE 04 09 2024 TIME 10:31:27.5
NODE    0 CPU TIME =       887.167
NODE    1 CPU TIME =       887.448
NODE    2 CPU TIME =       887.452
NODE    3 CPU TIME =       887.452
NODE    4 CPU TIME =       887.444
NODE    5 CPU TIME =       887.439
NODE    6 CPU TIME =       887.444
NODE    7 CPU TIME =       887.393
    TOTAL CPU TIME =      7099.239
================================================================================
Time: Wed 04 Sep 2024 10:31:27 AM CEST
Job terminated
================================================================================
Contents of temporary directory in master node node85:
total 3689080
-rw-r--r-- 1 erba users         0 Sep  4 10:16 dffit3.dat
-rw-r--r-- 1 erba users 122943752 Sep  4 10:24 fort.10.pe0
-rw-r--r-- 1 erba users 122943752 Sep  4 10:24 fort.10.pe1
-rw-r--r-- 1 erba users 245887504 Sep  4 10:24 fort.10.pe2
-rw-r--r-- 1 erba users 245887504 Sep  4 10:24 fort.10.pe3
-rw-r--r-- 1 erba users 245887504 Sep  4 10:24 fort.10.pe4
-rw-r--r-- 1 erba users 245887504 Sep  4 10:24 fort.10.pe5
-rw-r--r-- 1 erba users 245887504 Sep  4 10:24 fort.10.pe6
-rw-r--r-- 1 erba users 184415632 Sep  4 10:24 fort.10.pe7
-rw-r--r-- 1 erba users   2867624 Sep  4 10:23 fort.11.pe0
-rw-r--r-- 1 erba users   2867624 Sep  4 10:23 fort.11.pe1
-rw-r--r-- 1 erba users   2867624 Sep  4 10:23 fort.11.pe2
-rw-r--r-- 1 erba users   2867624 Sep  4 10:23 fort.11.pe3
-rw-r--r-- 1 erba users   2867624 Sep  4 10:23 fort.11.pe4
-rw-r--r-- 1 erba users   2867624 Sep  4 10:23 fort.11.pe5
-rw-r--r-- 1 erba users   2867624 Sep  4 10:23 fort.11.pe6
-rw-r--r-- 1 erba users   2867624 Sep  4 10:23 fort.11.pe7
-rw-r--r-- 1 erba users         0 Sep  4 10:16 fort.17.pe1
-rw-r--r-- 1 erba users         0 Sep  4 10:16 fort.17.pe2
-rw-r--r-- 1 erba users         0 Sep  4 10:16 fort.17.pe3
-rw-r--r-- 1 erba users         0 Sep  4 10:16 fort.17.pe4
-rw-r--r-- 1 erba users         0 Sep  4 10:16 fort.17.pe5
-rw-r--r-- 1 erba users         0 Sep  4 10:16 fort.17.pe6
-rw-r--r-- 1 erba users         0 Sep  4 10:16 fort.17.pe7
-rw-r--r-- 1 erba users         0 Sep  4 10:16 fort.18.pe0
-rw-r--r-- 1 erba users         0 Sep  4 10:16 fort.18.pe1
-rw-r--r-- 1 erba users         0 Sep  4 10:16 fort.18.pe2
-rw-r--r-- 1 erba users         0 Sep  4 10:16 fort.18.pe3
-rw-r--r-- 1 erba users         0 Sep  4 10:16 fort.18.pe4
-rw-r--r-- 1 erba users         0 Sep  4 10:16 fort.18.pe5
-rw-r--r-- 1 erba users         0 Sep  4 10:16 fort.18.pe6
-rw-r--r-- 1 erba users         0 Sep  4 10:16 fort.18.pe7
-rw-r--r-- 1 erba users         0 Sep  4 10:16 fort.1.pe0
-rw-r--r-- 1 erba users         0 Sep  4 10:16 fort.1.pe1
-rw-r--r-- 1 erba users         0 Sep  4 10:16 fort.1.pe2
-rw-r--r-- 1 erba users         0 Sep  4 10:16 fort.1.pe3
-rw-r--r-- 1 erba users         0 Sep  4 10:16 fort.1.pe4
-rw-r--r-- 1 erba users         0 Sep  4 10:16 fort.1.pe5
-rw-r--r-- 1 erba users         0 Sep  4 10:16 fort.1.pe6
-rw-r--r-- 1 erba users         0 Sep  4 10:16 fort.1.pe7
-rw-r--r-- 1 erba users    465712 Sep  4 10:31 fort.21
-rw-r--r-- 1 erba users         0 Sep  4 10:16 fort.28.pe0
-rw-r--r-- 1 erba users         0 Sep  4 10:16 fort.28.pe1
-rw-r--r-- 1 erba users         0 Sep  4 10:16 fort.28.pe2
-rw-r--r-- 1 erba users         0 Sep  4 10:16 fort.28.pe3
-rw-r--r-- 1 erba users         0 Sep  4 10:16 fort.28.pe4
-rw-r--r-- 1 erba users         0 Sep  4 10:16 fort.28.pe5
-rw-r--r-- 1 erba users         0 Sep  4 10:16 fort.28.pe6
-rw-r--r-- 1 erba users         0 Sep  4 10:16 fort.28.pe7
-rw-r--r-- 1 erba users         0 Sep  4 10:16 fort.29.pe0
-rw-r--r-- 1 erba users         0 Sep  4 10:16 fort.29.pe1
-rw-r--r-- 1 erba users         0 Sep  4 10:16 fort.29.pe2
-rw-r--r-- 1 erba users         0 Sep  4 10:16 fort.29.pe3
-rw-r--r-- 1 erba users         0 Sep  4 10:16 fort.29.pe4
-rw-r--r-- 1 erba users         0 Sep  4 10:16 fort.29.pe5
-rw-r--r-- 1 erba users         0 Sep  4 10:16 fort.29.pe6
-rw-r--r-- 1 erba users         0 Sep  4 10:16 fort.29.pe7
-rw-r--r-- 1 erba users         0 Sep  4 10:16 fort.38.pe0
-rw-r--r-- 1 erba users         0 Sep  4 10:16 fort.38.pe1
-rw-r--r-- 1 erba users         0 Sep  4 10:16 fort.38.pe2
-rw-r--r-- 1 erba users         0 Sep  4 10:16 fort.38.pe3
-rw-r--r-- 1 erba users         0 Sep  4 10:16 fort.38.pe4
-rw-r--r-- 1 erba users         0 Sep  4 10:16 fort.38.pe5
-rw-r--r-- 1 erba users         0 Sep  4 10:16 fort.38.pe6
-rw-r--r-- 1 erba users         0 Sep  4 10:16 fort.38.pe7
-rw-r--r-- 1 erba users         0 Sep  4 10:16 fort.3.pe0
-rw-r--r-- 1 erba users         0 Sep  4 10:16 fort.3.pe1
-rw-r--r-- 1 erba users         0 Sep  4 10:16 fort.3.pe2
-rw-r--r-- 1 erba users         0 Sep  4 10:16 fort.3.pe3
-rw-r--r-- 1 erba users         0 Sep  4 10:16 fort.3.pe4
-rw-r--r-- 1 erba users         0 Sep  4 10:16 fort.3.pe5
-rw-r--r-- 1 erba users         0 Sep  4 10:16 fort.3.pe6
-rw-r--r-- 1 erba users         0 Sep  4 10:16 fort.3.pe7
-rw-r--r-- 1 erba users         0 Sep  4 10:16 fort.40.pe0
-rw-r--r-- 1 erba users         0 Sep  4 10:16 fort.40.pe1
-rw-r--r-- 1 erba users         0 Sep  4 10:16 fort.40.pe2
-rw-r--r-- 1 erba users         0 Sep  4 10:16 fort.40.pe3
-rw-r--r-- 1 erba users         0 Sep  4 10:16 fort.40.pe4
-rw-r--r-- 1 erba users         0 Sep  4 10:16 fort.40.pe5
-rw-r--r-- 1 erba users         0 Sep  4 10:16 fort.40.pe6
-rw-r--r-- 1 erba users         0 Sep  4 10:16 fort.40.pe7
-rw-r--r-- 1 erba users 122943752 Sep  4 10:17 fort.8.pe0
-rw-r--r-- 1 erba users 122943752 Sep  4 10:17 fort.8.pe1
-rw-r--r-- 1 erba users 245887504 Sep  4 10:17 fort.8.pe2
-rw-r--r-- 1 erba users 245887504 Sep  4 10:17 fort.8.pe3
-rw-r--r-- 1 erba users 245887504 Sep  4 10:17 fort.8.pe4
-rw-r--r-- 1 erba users 245887504 Sep  4 10:17 fort.8.pe5
-rw-r--r-- 1 erba users 245887504 Sep  4 10:17 fort.8.pe6
-rw-r--r-- 1 erba users 184415632 Sep  4 10:17 fort.8.pe7
-rw-r--r-- 1 erba users  22839444 Sep  4 10:31 fort.9
-rw-r--r-- 1 erba users   6940248 Sep  4 10:24 fort.95.pe0
-rw-r--r-- 1 erba users   6940248 Sep  4 10:24 fort.95.pe1
-rw-r--r-- 1 erba users   6940248 Sep  4 10:24 fort.95.pe2
-rw-r--r-- 1 erba users   6940248 Sep  4 10:24 fort.95.pe3
-rw-r--r-- 1 erba users   6940248 Sep  4 10:24 fort.95.pe4
-rw-r--r-- 1 erba users   6940248 Sep  4 10:24 fort.95.pe5
-rw-r--r-- 1 erba users   6940248 Sep  4 10:24 fort.95.pe6
-rw-r--r-- 1 erba users   6940248 Sep  4 10:24 fort.95.pe7
-rw-r--r-- 1 erba users  58996262 Sep  4 10:31 fort.98
-rw-r--r-- 1 erba users      3733 Sep  4 10:16 INPUT
-rwxr-xr-x 1 erba users 297262576 Sep  4 10:16 Pcrystal-472295
================================================================================
Copying output file back on run directory...
================================================================================
Removing temporary directory /scratch/tmp_p487_erba from each node...
Job terminated
