Pcrystal executable in: /home/erba/Ambrogio/SVN_PUB_1335/bin/Linux_ifort_openmpi_i64_clut_new/mkl/Pcrystal
Master system: Linux node80 4.19.0-8-amd64 #1 SMP Debian 4.19.98-1 (2020-01-26) x86_64 GNU/Linux
================================================================================
Starting Pcrystal SLURM job
================================================================================
Time: Mon 09 Sep 2024 11:19:32 AM CEST
SLURM job ID: 475012
Master hostname: node80
User: erba
mpirun executable in: /opt/openmpi-4.1.1-i21.4/bin/mpirun
Input file: diamond_phon_int444.d12
Output file: /home/erba/Ambrogio/MSSC2024/phonon_dispersion/diamond_ex2/test_exerc/diamond_phon_int444.out
Number of processors: 1
Nodes list: node80
================================================================================
Creating temporary directory /scratch/tmp_p17373_erba on each node...
Copying input file diamond_phon_int444.d12 on each node...
Copying Pcrystal on each node...
================================================================================
Contents of input file:
DIAMOND - PHONON 
CRYSTAL
0 0 0
227
3.56824856
1
6  .125  .125   .125
SCELPHONO
-2 2 2
2 -2 2
2 2 -2
FREQCALC
DISPERSI
RESTART
INTERPHESS
4 4 4
0
END
END
6 8
0 0 6 2.0 1.0
13575.349682 0.00022245814352
2035.2333680 0.00172327382520
463.22562359 0.00892557153140
131.20019598 0.03572798450200
42.853015891 0.11076259931000
15.584185766 0.24295627626000
0 0 2 2.0 1.0
6.2067138508 0.41440263448000
2.5764896527 0.23744968655000
0 0 1 0.0 1.0
0.4941102000 1.00000000000000
0 0 1 0.0 1.0
0.1644071000 1.00000000000000
0 2 4 2.0 1.0
34.697232244 0.00533336578050
7.9582622826 0.03586410909200
2.3780826883 0.14215873329000
0.8143320818 0.34270471845000
0 2 1 0.0 1.0
0.5662417100 1.00000000000000
0 2 1 0.0 1.0
0.2673545000 1.00000000000000
0 3 1 0.0 1.0
0.8791584200 1.00000000000000
99 0
END
DFT
PBE
END
SHRINK
2 2
TOLDEE
10
END
================================================================================
Time: Mon 09 Sep 2024 11:19:33 AM CEST
Starting Pcrystal job in /scratch/tmp_p17373_erba on each node...
================================================================================
 PROCESS            0  OF            1  WORKING
 Default number of threads is:            1

         
 *******************************************************************************
 *                                                                             *
 *                               CRYSTAL23                                     *
 *                      public : 1.0.1 - October 2022                          *
 *                       HTTP://WWW.CRYSTAL.UNITO.IT                           *
 *                                                                             *
 *                              MAIN AUTHORS                                   *
 *                                                                             *
 *  R. DOVESI(1,11), V.R. SAUNDERS(2), C. ROETTI(1,11), R. ORLANDO(1,11),      *
 *  C.M. ZICOVICH-WILSON(1,3), F. PASCALE(4), B. CIVALLERI(1,11),              *
 *  K. DOLL(5), N.M. HARRISON(6), I.J. BUSH(7), Ph. D'ARCO(8),                 *
 *  M. LLUNELL(9), M. CAUSA'(10), Y. NOEL(8), L. MASCHIO(1,11), A. ERBA(1,11)  *
 *  M. RE'RAT(14), S. CASASSA(1,11), B.G. SEARLE(2), J.K. DESMARAIS(1)         *
 *                                                                             *
 *        CONTRIBUTIONS TO THE CODE HAVE ALSO BEEN GIVEN BY                    *
 *                                                                             *
 *  M. FERRABONE(1,11), M. DE LA PIERRE(1,11), M. FERRERO(1,11),               *
 *  J. BAIMA(1,11), E. ALBANESE(1,11), M.F. PEINTINGER(12), R. BAST(13),       *
 *  B. KIRTMAN(15), V. LACIVITA(1,11), R. DEMICHELIS(1,16)                     *
 *  G. BRANDEBURG(17), S. SALUSTRO(1,11), G. SANSONE(1,11)                     *
 *  M.T. RUGGIERO(18), L.E. DAGA(1), L. DONA'(1), A. COSSARD(1)                *
 *                                                                             *
 * (1) THEORETICAL CHEMISTRY GROUP - UNIVERSITA' DI TORINO - TORINO (ITALY)    *
 * (2) SCIENTIFIC COMPUTING DEPARTMENT - STFC DARESBURY (UK)                   *
 * (3) UNIVERSIDAD AUTONOMA DEL ESTADO DE MORELOS - CUERNAVACA (MEXICO)        *
 * (4) UNIVERSITE' DE LORRAINE - NANCY (FRANCE)                                *
 * (5) UNIVERSITAET STUTTGART- STUTTGART (GERMANY)                             *
 * (6) IMPERIAL COLLEGE - LONDON (UK)                                          *
 * (7) SCIENTIFIC COMPUTING DEPARTMENT - STFC RAL (UK)                         *
 * (8) UPMC - SORBONNE UNIVERSITES - PARIS (FRANCE)                            *
 * (9) UNIVERSIDAD DE BARCELONA - BARCELONA (SPAIN)                            *
 *(10) UNIVERSITA' DI NAPOLI "FEDERICO II" - NAPOLI (ITALY)                    *
 *(11) NIS - NANOSTRUCTURED INTERFACES AND SURFACES - TORINO (ITALY)           *
 *(12) MPI FUER CHEMISCHE ENERGIEKONVERSION - MUELHEIM AN DER RUHR (GERMANY)   *
 *(13) UNIVERSITY OF TROMSO - TROMSO (NORWAY)                                  *
 *(14) UNIVERSITE' DE PAU ET DES PAYS DE L'ADOUR - PAU (FRANCE)                *
 *(15) UNIVERSITY OF CALIFORNIA SANTA BARBARA - SANTA BARBARA (USA)            *
 *(16) CURTIN UNIVERSITY - PERTH (AUSTRALIA)                                   *
 *(17) UNIVERSITY COLLEGE LONDON - LONDON (UK)                                 *
 *(18) UNIVERSITY OF VERMONT - BURLINGTON (USA)                                *
 *                                                                             *
 *******************************************************************************
 EEEEEEEEEE STARTING  DATE 09 09 2024 TIME 11:19:34.0
 DIAMOND - PHONON                                                                

 CRYSTAL CALCULATION
 (INPUT ACCORDING TO THE INTERNATIONAL TABLES FOR X-RAY CRYSTALLOGRAPHY)
 CRYSTAL FAMILY                       :  CUBIC       
 CRYSTAL CLASS  (GROTH - 1921)        :  CUBIC HEXAKISOCTAHEDRAL              

 SPACE GROUP (CENTROSYMMETRIC)        :  F D 3 M         

 LATTICE PARAMETERS  (ANGSTROMS AND DEGREES) - CONVENTIONAL CELL
        A           B           C        ALPHA        BETA       GAMMA
     3.56825     3.56825     3.56825    90.00000    90.00000    90.00000


 NUMBER OF IRREDUCIBLE ATOMS IN THE CONVENTIONAL CELL:    1

 INPUT COORDINATES

 ATOM AT. N.              COORDINATES
   1   6     1.250000000000E-01  1.250000000000E-01  1.250000000000E-01

 *******************************************************************************

 << INFORMATION >>: FROM NOW ON, ALL COORDINATES REFER TO THE PRIMITIVE CELL

 *******************************************************************************

 LATTICE PARAMETERS  (ANGSTROMS AND DEGREES) - PRIMITIVE CELL
       A          B          C        ALPHA      BETA     GAMMA        VOLUME
    2.52313    2.52313    2.52313    60.00000  60.00000  60.00000     11.358090

 COORDINATES OF THE EQUIVALENT ATOMS (FRACTIONAL UNITS)

 N. ATOM EQUIV AT. N.          X                  Y                  Z

   1   1   1    6 C     1.25000000000E-01  1.25000000000E-01  1.25000000000E-01
   2   1   2    6 C    -1.25000000000E-01 -1.25000000000E-01 -1.25000000000E-01

 NUMBER OF SYMMETRY OPERATORS         :   48
 *******************************************************************************
 * GEOMETRY EDITING - INPUT COORDINATES ARE GIVEN IN ANGSTROM         
 *******************************************************************************

 GEOMETRY NOW FULLY CONSISTENT WITH THE GROUP


 ATOMS TRANSLATED BY (FRACTIONAL)      0.12500      0.12500      0.12500
 ATOMS TRANSLATED BY (ANGSTROM)         0.44603      0.44603      0.44603
 NUMBER OF OPERATORS WITH FINITE TRANSLATORS HAS BEEN REDUCED FROM 36 TO 24

 REMOVAL OF SYMMOPS WITH FINITE TRANSLATIONAL COMPONENTS
 HAS REDUCED THEIR NUMBER FROM 48 TO 24

 GCALCO - MAX INDICES DIRECT LATTICE VECTOR    14    14    14
 NO.OF VECTORS CREATED 6999 STARS  105 RMAX    26.70233 BOHR

 *******************************************************************************
 * SUPERCELL OPTION
 *******************************************************************************


        EXPANSION MATRIX OF PRIMITIVE CELL
 E1    -2.000     2.000     2.000
 E2     2.000    -2.000     2.000
 E3     2.000     2.000    -2.000

 NUMBER OF ATOMS PER SUPERCELL    64

        DIRECT LATTICE VECTORS COMPONENTS (ANGSTROM)
 B1     7.136     0.000     0.000
 B2     0.000     7.136     0.000
 B3     0.000     0.000     7.136

 LATTICE PARAMETERS  (ANGSTROM AND DEGREES)
       A          B          C         ALPHA     BETA     GAMMA        VOLUME
    7.13650    7.13650    7.13650    90.00000  90.00000  90.00000    363.458881


 **** ATOMS BELONGING TO THE SUPERCELL
 LABEL AT.NO.      COORDINATES (ANGSTROM AND FRACTIONAL)
     1     6     0.8921     0.8921     0.8921     0.1250     0.1250     0.1250
     2     6     2.6762     2.6762     0.8921     0.3750     0.3750     0.1250
     3     6    -2.6762    -2.6762     0.8921    -0.3750    -0.3750     0.1250
     4     6    -0.8921    -0.8921     0.8921    -0.1250    -0.1250     0.1250
     5     6     2.6762     0.8921     2.6762     0.3750     0.1250     0.3750
     6     6    -2.6762     2.6762     2.6762    -0.3750     0.3750     0.3750
     7     6    -0.8921    -2.6762     2.6762    -0.1250    -0.3750     0.3750
     8     6     0.8921    -0.8921     2.6762     0.1250    -0.1250     0.3750
     9     6    -2.6762     0.8921    -2.6762    -0.3750     0.1250    -0.3750
    10     6    -0.8921     2.6762    -2.6762    -0.1250     0.3750    -0.3750
    11     6     0.8921    -2.6762    -2.6762     0.1250    -0.3750    -0.3750
    12     6     2.6762    -0.8921    -2.6762     0.3750    -0.1250    -0.3750
    13     6    -0.8921     0.8921    -0.8921    -0.1250     0.1250    -0.1250
    14     6     0.8921     2.6762    -0.8921     0.1250     0.3750    -0.1250
    15     6     2.6762    -2.6762    -0.8921     0.3750    -0.3750    -0.1250
    16     6    -2.6762    -0.8921    -0.8921    -0.3750    -0.1250    -0.1250
    17     6     0.8921     2.6762     2.6762     0.1250     0.3750     0.3750
    18     6     2.6762    -2.6762     2.6762     0.3750    -0.3750     0.3750
    19     6    -2.6762    -0.8921     2.6762    -0.3750    -0.1250     0.3750
    20     6    -0.8921     0.8921     2.6762    -0.1250     0.1250     0.3750
    21     6     2.6762     2.6762    -2.6762     0.3750     0.3750    -0.3750
    22     6    -2.6762    -2.6762    -2.6762    -0.3750    -0.3750    -0.3750
    23     6    -0.8921    -0.8921    -2.6762    -0.1250    -0.1250    -0.3750
    24     6     0.8921     0.8921    -2.6762     0.1250     0.1250    -0.3750
    25     6    -2.6762     2.6762    -0.8921    -0.3750     0.3750    -0.1250
    26     6    -0.8921    -2.6762    -0.8921    -0.1250    -0.3750    -0.1250
    27     6     0.8921    -0.8921    -0.8921     0.1250    -0.1250    -0.1250
    28     6     2.6762     0.8921    -0.8921     0.3750     0.1250    -0.1250
    29     6    -0.8921     2.6762     0.8921    -0.1250     0.3750     0.1250
    30     6     0.8921    -2.6762     0.8921     0.1250    -0.3750     0.1250
    31     6     2.6762    -0.8921     0.8921     0.3750    -0.1250     0.1250
    32     6    -2.6762     0.8921     0.8921    -0.3750     0.1250     0.1250
    33     6     0.0000     0.0000     0.0000     0.0000     0.0000     0.0000
    34     6     1.7841     1.7841     0.0000     0.2500     0.2500     0.0000
    35     6     3.5682     3.5682     0.0000     0.5000     0.5000     0.0000
    36     6    -1.7841    -1.7841     0.0000    -0.2500    -0.2500     0.0000
    37     6     1.7841     0.0000     1.7841     0.2500     0.0000     0.2500
    38     6     3.5682     1.7841     1.7841     0.5000     0.2500     0.2500
    39     6    -1.7841     3.5682     1.7841    -0.2500     0.5000     0.2500
    40     6     0.0000    -1.7841     1.7841     0.0000    -0.2500     0.2500
    41     6     3.5682     0.0000     3.5682     0.5000     0.0000     0.5000
    42     6    -1.7841     1.7841     3.5682    -0.2500     0.2500     0.5000
    43     6     0.0000     3.5682     3.5682     0.0000     0.5000     0.5000
    44     6     1.7841    -1.7841     3.5682     0.2500    -0.2500     0.5000
    45     6    -1.7841     0.0000    -1.7841    -0.2500     0.0000    -0.2500
    46     6     0.0000     1.7841    -1.7841     0.0000     0.2500    -0.2500
    47     6     1.7841     3.5682    -1.7841     0.2500     0.5000    -0.2500
    48     6    -3.5682    -1.7841    -1.7841    -0.5000    -0.2500    -0.2500
    49     6     0.0000     1.7841     1.7841     0.0000     0.2500     0.2500
    50     6     1.7841     3.5682     1.7841     0.2500     0.5000     0.2500
    51     6     3.5682    -1.7841     1.7841     0.5000    -0.2500     0.2500
    52     6    -1.7841     0.0000     1.7841    -0.2500     0.0000     0.2500
    53     6     1.7841     1.7841     3.5682     0.2500     0.2500     0.5000
    54     6     3.5682     3.5682     3.5682     0.5000     0.5000     0.5000
    55     6    -1.7841    -1.7841     3.5682    -0.2500    -0.2500     0.5000
    56     6     0.0000     0.0000     3.5682     0.0000     0.0000     0.5000
    57     6     3.5682     1.7841    -1.7841     0.5000     0.2500    -0.2500
    58     6    -1.7841     3.5682    -1.7841    -0.2500     0.5000    -0.2500
    59     6     0.0000    -1.7841    -1.7841     0.0000    -0.2500    -0.2500
    60     6     1.7841     0.0000    -1.7841     0.2500     0.0000    -0.2500
    61     6    -1.7841     1.7841     0.0000    -0.2500     0.2500     0.0000
    62     6     0.0000     3.5682     0.0000     0.0000     0.5000     0.0000
    63     6     1.7841    -1.7841     0.0000     0.2500    -0.2500     0.0000
    64     6    -3.5682     0.0000     0.0000    -0.5000     0.0000     0.0000

 **************************** SUPERCELL GENERATED ****************************

 **** ATOMS IN THE SUPERCELL REORDERED FOR PHONON CALCULATION
      ATOMS IN THE SMALL CELL ON TOP

 LABEL AT.NO.      COORDINATES (ANGSTROM)
     1     6     0.8921     0.8921     0.8921
     2     6     0.0000     0.0000     0.0000
     3     6    -2.6762    -2.6762     0.8921
     4     6    -0.8921    -0.8921     0.8921
     5     6     2.6762     0.8921     2.6762
     6     6    -2.6762     2.6762     2.6762
     7     6    -0.8921    -2.6762     2.6762
     8     6     0.8921    -0.8921     2.6762
     9     6    -2.6762     0.8921    -2.6762
    10     6    -0.8921     2.6762    -2.6762
    11     6     0.8921    -2.6762    -2.6762
    12     6     2.6762    -0.8921    -2.6762
    13     6    -0.8921     0.8921    -0.8921
    14     6     0.8921     2.6762    -0.8921
    15     6     2.6762    -2.6762    -0.8921
    16     6    -2.6762    -0.8921    -0.8921
    17     6     0.8921     2.6762     2.6762
    18     6     2.6762    -2.6762     2.6762
    19     6    -2.6762    -0.8921     2.6762
    20     6    -0.8921     0.8921     2.6762
    21     6     2.6762     2.6762    -2.6762
    22     6    -2.6762    -2.6762    -2.6762
    23     6    -0.8921    -0.8921    -2.6762
    24     6     0.8921     0.8921    -2.6762
    25     6    -2.6762     2.6762    -0.8921
    26     6    -0.8921    -2.6762    -0.8921
    27     6     0.8921    -0.8921    -0.8921
    28     6     2.6762     0.8921    -0.8921
    29     6    -0.8921     2.6762     0.8921
    30     6     0.8921    -2.6762     0.8921
    31     6     2.6762    -0.8921     0.8921
    32     6    -2.6762     0.8921     0.8921
    33     6     2.6762     2.6762     0.8921
    34     6     1.7841     1.7841     0.0000
    35     6     3.5682     3.5682     0.0000
    36     6    -1.7841    -1.7841     0.0000
    37     6     1.7841     0.0000     1.7841
    38     6     3.5682     1.7841     1.7841
    39     6    -1.7841     3.5682     1.7841
    40     6     0.0000    -1.7841     1.7841
    41     6     3.5682     0.0000     3.5682
    42     6    -1.7841     1.7841     3.5682
    43     6     0.0000     3.5682     3.5682
    44     6     1.7841    -1.7841     3.5682
    45     6    -1.7841     0.0000    -1.7841
    46     6     0.0000     1.7841    -1.7841
    47     6     1.7841     3.5682    -1.7841
    48     6    -3.5682    -1.7841    -1.7841
    49     6     0.0000     1.7841     1.7841
    50     6     1.7841     3.5682     1.7841
    51     6     3.5682    -1.7841     1.7841
    52     6    -1.7841     0.0000     1.7841
    53     6     1.7841     1.7841     3.5682
    54     6     3.5682     3.5682     3.5682
    55     6    -1.7841    -1.7841     3.5682
    56     6     0.0000     0.0000     3.5682
    57     6     3.5682     1.7841    -1.7841
    58     6    -1.7841     3.5682    -1.7841
    59     6     0.0000    -1.7841    -1.7841
    60     6     1.7841     0.0000    -1.7841
    61     6    -1.7841     1.7841     0.0000
    62     6     0.0000     3.5682     0.0000
    63     6     1.7841    -1.7841     0.0000
    64     6    -3.5682     0.0000     0.0000

 FRQFRQFRQFRQFRQFRQFRQFRQFRQFRQFRQFRQFRQFRQFRQFRQFRQFRQFRQFRQFRQFRQFRQFRQFRQFRQ

                       FREQUENCY CALCULATION

 INFORMATION **** INPFREQ **** PHONON DISPERSION CALCULATION
 INFORMATION **** INPFREQ **** FREQUENCY CALCULATION RESTART(DATA FROM FREQINFO.DAT)
 INFORMATION **** INPFREQ **** INTERPOLATION OF THE HESSIAN
 INFORMATION **** INPFREQ **** NEW DEFAULT - IMPOSING ECKART CONDITIONS TO THE HESSIAN

 GCALCO - MAX INDICES DIRECT LATTICE VECTOR    14    14    14
 NO.OF VECTORS CREATED 6999 STARS  120 RMAX   160.13768 BOHR

 GEOMETRY FOR WAVE FUNCTION - DIMENSIONALITY OF THE SYSTEM    3
 (NON PERIODIC DIRECTION: LATTICE PARAMETER FORMALLY SET TO 500)
 *******************************************************************************
 LATTICE PARAMETERS (ANGSTROMS AND DEGREES) - BOHR = 0.5291772083 ANGSTROM
 PRIMITIVE CELL - CENTRING CODE 1/1 VOLUME=   363.458881 - DENSITY  3.509 g/cm^3
         A              B              C           ALPHA      BETA       GAMMA 
     7.13649712     7.13649712     7.13649712    90.000000  90.000000  90.000000
 *******************************************************************************
 ATOMS IN THE ASYMMETRIC UNIT   10 - ATOMS IN THE UNIT CELL:   64
     ATOM                 X/A                 Y/B                 Z/C    
 *******************************************************************************
      1 T   6 C     1.250000000000E-01  1.250000000000E-01  1.250000000000E-01
      2 T   6 C     0.000000000000E+00  0.000000000000E+00  0.000000000000E+00
      3 T   6 C    -3.750000000000E-01 -3.750000000000E-01  1.250000000000E-01
      4 F   6 C    -1.250000000000E-01 -1.250000000000E-01  1.250000000000E-01
      5 F   6 C     3.750000000000E-01  1.250000000000E-01  3.750000000000E-01
      6 T   6 C    -3.750000000000E-01  3.750000000000E-01  3.750000000000E-01
      7 F   6 C    -1.250000000000E-01 -3.750000000000E-01  3.750000000000E-01
      8 T   6 C     1.250000000000E-01 -1.250000000000E-01  3.750000000000E-01
      9 F   6 C    -3.750000000000E-01  1.250000000000E-01 -3.750000000000E-01
     10 F   6 C    -1.250000000000E-01  3.750000000000E-01 -3.750000000000E-01
     11 F   6 C     1.250000000000E-01 -3.750000000000E-01 -3.750000000000E-01
     12 F   6 C     3.750000000000E-01 -1.250000000000E-01 -3.750000000000E-01
     13 F   6 C    -1.250000000000E-01  1.250000000000E-01 -1.250000000000E-01
     14 F   6 C     1.250000000000E-01  3.750000000000E-01 -1.250000000000E-01
     15 F   6 C     3.750000000000E-01 -3.750000000000E-01 -1.250000000000E-01
     16 F   6 C    -3.750000000000E-01 -1.250000000000E-01 -1.250000000000E-01
     17 F   6 C     1.250000000000E-01  3.750000000000E-01  3.750000000000E-01
     18 F   6 C     3.750000000000E-01 -3.750000000000E-01  3.750000000000E-01
     19 F   6 C    -3.750000000000E-01 -1.250000000000E-01  3.750000000000E-01
     20 F   6 C    -1.250000000000E-01  1.250000000000E-01  3.750000000000E-01
     21 F   6 C     3.750000000000E-01  3.750000000000E-01 -3.750000000000E-01
     22 F   6 C    -3.750000000000E-01 -3.750000000000E-01 -3.750000000000E-01
     23 F   6 C    -1.250000000000E-01 -1.250000000000E-01 -3.750000000000E-01
     24 F   6 C     1.250000000000E-01  1.250000000000E-01 -3.750000000000E-01
     25 F   6 C    -3.750000000000E-01  3.750000000000E-01 -1.250000000000E-01
     26 F   6 C    -1.250000000000E-01 -3.750000000000E-01 -1.250000000000E-01
     27 F   6 C     1.250000000000E-01 -1.250000000000E-01 -1.250000000000E-01
     28 F   6 C     3.750000000000E-01  1.250000000000E-01 -1.250000000000E-01
     29 F   6 C    -1.250000000000E-01  3.750000000000E-01  1.250000000000E-01
     30 F   6 C     1.250000000000E-01 -3.750000000000E-01  1.250000000000E-01
     31 F   6 C     3.750000000000E-01 -1.250000000000E-01  1.250000000000E-01
     32 F   6 C    -3.750000000000E-01  1.250000000000E-01  1.250000000000E-01
     33 F   6 C     3.750000000000E-01  3.750000000000E-01  1.250000000000E-01
     34 T   6 C     2.500000000000E-01  2.500000000000E-01  0.000000000000E+00
     35 T   6 C     5.000000000000E-01 -5.000000000000E-01  0.000000000000E+00
     36 F   6 C    -2.500000000000E-01 -2.500000000000E-01  0.000000000000E+00
     37 F   6 C     2.500000000000E-01  0.000000000000E+00  2.500000000000E-01
     38 T   6 C     5.000000000000E-01  2.500000000000E-01  2.500000000000E-01
     39 F   6 C    -2.500000000000E-01 -5.000000000000E-01  2.500000000000E-01
     40 F   6 C     0.000000000000E+00 -2.500000000000E-01  2.500000000000E-01
     41 F   6 C     5.000000000000E-01  0.000000000000E+00 -5.000000000000E-01
     42 F   6 C    -2.500000000000E-01  2.500000000000E-01 -5.000000000000E-01
     43 F   6 C     0.000000000000E+00 -5.000000000000E-01 -5.000000000000E-01
     44 F   6 C     2.500000000000E-01 -2.500000000000E-01 -5.000000000000E-01
     45 F   6 C    -2.500000000000E-01  0.000000000000E+00 -2.500000000000E-01
     46 F   6 C     0.000000000000E+00  2.500000000000E-01 -2.500000000000E-01
     47 F   6 C     2.500000000000E-01 -5.000000000000E-01 -2.500000000000E-01
     48 F   6 C     5.000000000000E-01 -2.500000000000E-01 -2.500000000000E-01
     49 F   6 C     0.000000000000E+00  2.500000000000E-01  2.500000000000E-01
     50 F   6 C     2.500000000000E-01 -5.000000000000E-01  2.500000000000E-01
     51 F   6 C     5.000000000000E-01 -2.500000000000E-01  2.500000000000E-01
     52 F   6 C    -2.500000000000E-01  0.000000000000E+00  2.500000000000E-01
     53 F   6 C     2.500000000000E-01  2.500000000000E-01 -5.000000000000E-01
     54 T   6 C     5.000000000000E-01 -5.000000000000E-01 -5.000000000000E-01
     55 F   6 C    -2.500000000000E-01 -2.500000000000E-01 -5.000000000000E-01
     56 T   6 C     0.000000000000E+00  0.000000000000E+00 -5.000000000000E-01
     57 F   6 C     5.000000000000E-01  2.500000000000E-01 -2.500000000000E-01
     58 F   6 C    -2.500000000000E-01 -5.000000000000E-01 -2.500000000000E-01
     59 F   6 C     0.000000000000E+00 -2.500000000000E-01 -2.500000000000E-01
     60 F   6 C     2.500000000000E-01  0.000000000000E+00 -2.500000000000E-01
     61 F   6 C    -2.500000000000E-01  2.500000000000E-01  0.000000000000E+00
     62 F   6 C     0.000000000000E+00 -5.000000000000E-01  0.000000000000E+00
     63 F   6 C     2.500000000000E-01 -2.500000000000E-01  0.000000000000E+00
     64 F   6 C     5.000000000000E-01  0.000000000000E+00  0.000000000000E+00

 T = ATOM BELONGING TO THE ASYMMETRIC UNIT

 ****   24 SYMMOPS - TRANSLATORS IN FRACTIONAL UNITS
 **** MATRICES AND TRANSLATORS IN THE CRYSTALLOGRAPHIC REFERENCE FRAME
   V INV                    ROTATION MATRICES                   TRANSLATORS
   1   1  1.00  0.00  0.00  0.00  1.00  0.00  0.00  0.00  1.00  0.00  0.00  0.00
   2   2 -1.00  0.00  0.00  0.00 -1.00  0.00  0.00  0.00  1.00  0.00  0.00  0.00
   3   3  1.00  0.00  0.00  0.00 -1.00  0.00  0.00  0.00 -1.00  0.00  0.00  0.00
   4   4 -1.00  0.00  0.00  0.00  1.00  0.00  0.00  0.00 -1.00  0.00  0.00  0.00
   5   6  0.00  0.00  1.00  1.00  0.00  0.00  0.00  1.00  0.00  0.00  0.00  0.00
   6   5  0.00  1.00  0.00  0.00  0.00  1.00  1.00  0.00  0.00  0.00  0.00  0.00
   7   8  0.00  0.00 -1.00 -1.00  0.00  0.00  0.00  1.00  0.00  0.00  0.00  0.00
   8   7  0.00 -1.00  0.00  0.00  0.00  1.00 -1.00  0.00  0.00  0.00  0.00  0.00
   9  10  0.00  0.00  1.00 -1.00  0.00  0.00  0.00 -1.00  0.00  0.00  0.00  0.00
  10   9  0.00 -1.00  0.00  0.00  0.00 -1.00  1.00  0.00  0.00  0.00  0.00  0.00
  11  12  0.00  0.00 -1.00  1.00  0.00  0.00  0.00 -1.00  0.00  0.00  0.00  0.00
  12  11  0.00  1.00  0.00  0.00  0.00 -1.00 -1.00  0.00  0.00  0.00  0.00  0.00
  13  13  0.00  1.00  0.00  1.00  0.00  0.00  0.00  0.00  1.00  0.00  0.00  0.00
  14  14  0.00 -1.00  0.00 -1.00  0.00  0.00  0.00  0.00  1.00  0.00  0.00  0.00
  15  16  0.00 -1.00  0.00  1.00  0.00  0.00  0.00  0.00 -1.00  0.00  0.00  0.00
  16  15  0.00  1.00  0.00 -1.00  0.00  0.00  0.00  0.00 -1.00  0.00  0.00  0.00
  17  17  1.00  0.00  0.00  0.00  0.00  1.00  0.00  1.00  0.00  0.00  0.00  0.00
  18  18  0.00  0.00  1.00  0.00  1.00  0.00  1.00  0.00  0.00  0.00  0.00  0.00
  19  21 -1.00  0.00  0.00  0.00  0.00 -1.00  0.00  1.00  0.00  0.00  0.00  0.00
  20  22  0.00  0.00  1.00  0.00 -1.00  0.00 -1.00  0.00  0.00  0.00  0.00  0.00
  21  19 -1.00  0.00  0.00  0.00  0.00  1.00  0.00 -1.00  0.00  0.00  0.00  0.00
  22  20  0.00  0.00 -1.00  0.00 -1.00  0.00  1.00  0.00  0.00  0.00  0.00  0.00
  23  23  1.00  0.00  0.00  0.00  0.00 -1.00  0.00 -1.00  0.00  0.00  0.00  0.00
  24  24  0.00  0.00 -1.00  0.00  1.00  0.00 -1.00  0.00  0.00  0.00  0.00  0.00

 DIRECT LATTICE VECTORS CARTESIAN COMPONENTS (ANGSTROM)
          X                    Y                    Z
   0.713649712000E+01   0.000000000000E+00   0.000000000000E+00
   0.000000000000E+00   0.713649712000E+01   0.000000000000E+00
   0.000000000000E+00   0.000000000000E+00   0.713649712000E+01


 CARTESIAN COORDINATES - PRIMITIVE CELL
 *******************************************************************************
 *      ATOM          X(ANGSTROM)         Y(ANGSTROM)         Z(ANGSTROM)
 *******************************************************************************
    1     6 C     8.920621400000E-01  8.920621400000E-01  8.920621400000E-01
    2     6 C     0.000000000000E+00  0.000000000000E+00  0.000000000000E+00
    3     6 C    -2.676186420000E+00 -2.676186420000E+00  8.920621400000E-01
    4     6 C    -8.920621400000E-01 -8.920621400000E-01  8.920621400000E-01
    5     6 C     2.676186420000E+00  8.920621400000E-01  2.676186420000E+00
    6     6 C    -2.676186420000E+00  2.676186420000E+00  2.676186420000E+00
    7     6 C    -8.920621400000E-01 -2.676186420000E+00  2.676186420000E+00
    8     6 C     8.920621400000E-01 -8.920621400000E-01  2.676186420000E+00
    9     6 C    -2.676186420000E+00  8.920621400000E-01 -2.676186420000E+00
   10     6 C    -8.920621400000E-01  2.676186420000E+00 -2.676186420000E+00
   11     6 C     8.920621400000E-01 -2.676186420000E+00 -2.676186420000E+00
   12     6 C     2.676186420000E+00 -8.920621400000E-01 -2.676186420000E+00
   13     6 C    -8.920621400000E-01  8.920621400000E-01 -8.920621400000E-01
   14     6 C     8.920621400000E-01  2.676186420000E+00 -8.920621400000E-01
   15     6 C     2.676186420000E+00 -2.676186420000E+00 -8.920621400000E-01
   16     6 C    -2.676186420000E+00 -8.920621400000E-01 -8.920621400000E-01
   17     6 C     8.920621400000E-01  2.676186420000E+00  2.676186420000E+00
   18     6 C     2.676186420000E+00 -2.676186420000E+00  2.676186420000E+00
   19     6 C    -2.676186420000E+00 -8.920621400000E-01  2.676186420000E+00
   20     6 C    -8.920621400000E-01  8.920621400000E-01  2.676186420000E+00
   21     6 C     2.676186420000E+00  2.676186420000E+00 -2.676186420000E+00
   22     6 C    -2.676186420000E+00 -2.676186420000E+00 -2.676186420000E+00
   23     6 C    -8.920621400000E-01 -8.920621400000E-01 -2.676186420000E+00
   24     6 C     8.920621400000E-01  8.920621400000E-01 -2.676186420000E+00
   25     6 C    -2.676186420000E+00  2.676186420000E+00 -8.920621400000E-01
   26     6 C    -8.920621400000E-01 -2.676186420000E+00 -8.920621400000E-01
   27     6 C     8.920621400000E-01 -8.920621400000E-01 -8.920621400000E-01
   28     6 C     2.676186420000E+00  8.920621400000E-01 -8.920621400000E-01
   29     6 C    -8.920621400000E-01  2.676186420000E+00  8.920621400000E-01
   30     6 C     8.920621400000E-01 -2.676186420000E+00  8.920621400000E-01
   31     6 C     2.676186420000E+00 -8.920621400000E-01  8.920621400000E-01
   32     6 C    -2.676186420000E+00  8.920621400000E-01  8.920621400000E-01
   33     6 C     2.676186420000E+00  2.676186420000E+00  8.920621400000E-01
   34     6 C     1.784124280000E+00  1.784124280000E+00  0.000000000000E+00
   35     6 C     3.568248560000E+00  3.568248560000E+00  0.000000000000E+00
   36     6 C    -1.784124280000E+00 -1.784124280000E+00  0.000000000000E+00
   37     6 C     1.784124280000E+00  0.000000000000E+00  1.784124280000E+00
   38     6 C     3.568248560000E+00  1.784124280000E+00  1.784124280000E+00
   39     6 C    -1.784124280000E+00  3.568248560000E+00  1.784124280000E+00
   40     6 C     0.000000000000E+00 -1.784124280000E+00  1.784124280000E+00
   41     6 C     3.568248560000E+00  0.000000000000E+00  3.568248560000E+00
   42     6 C    -1.784124280000E+00  1.784124280000E+00  3.568248560000E+00
   43     6 C     0.000000000000E+00  3.568248560000E+00  3.568248560000E+00
   44     6 C     1.784124280000E+00 -1.784124280000E+00  3.568248560000E+00
   45     6 C    -1.784124280000E+00  0.000000000000E+00 -1.784124280000E+00
   46     6 C     0.000000000000E+00  1.784124280000E+00 -1.784124280000E+00
   47     6 C     1.784124280000E+00  3.568248560000E+00 -1.784124280000E+00
   48     6 C     3.568248560000E+00 -1.784124280000E+00 -1.784124280000E+00
   49     6 C     0.000000000000E+00  1.784124280000E+00  1.784124280000E+00
   50     6 C     1.784124280000E+00  3.568248560000E+00  1.784124280000E+00
   51     6 C     3.568248560000E+00 -1.784124280000E+00  1.784124280000E+00
   52     6 C    -1.784124280000E+00  0.000000000000E+00  1.784124280000E+00
   53     6 C     1.784124280000E+00  1.784124280000E+00  3.568248560000E+00
   54     6 C     3.568248560000E+00  3.568248560000E+00  3.568248560000E+00
   55     6 C    -1.784124280000E+00 -1.784124280000E+00  3.568248560000E+00
   56     6 C     0.000000000000E+00  0.000000000000E+00  3.568248560000E+00
   57     6 C     3.568248560000E+00  1.784124280000E+00 -1.784124280000E+00
   58     6 C    -1.784124280000E+00  3.568248560000E+00 -1.784124280000E+00
   59     6 C     0.000000000000E+00 -1.784124280000E+00 -1.784124280000E+00
   60     6 C     1.784124280000E+00  0.000000000000E+00 -1.784124280000E+00
   61     6 C    -1.784124280000E+00  1.784124280000E+00  0.000000000000E+00
   62     6 C     0.000000000000E+00  3.568248560000E+00  0.000000000000E+00
   63     6 C     1.784124280000E+00 -1.784124280000E+00  0.000000000000E+00
   64     6 C     3.568248560000E+00  0.000000000000E+00  0.000000000000E+00

 *******************************************************************************
 LOCAL ATOMIC FUNCTIONS BASIS SET
 *******************************************************************************
   ATOM   X(AU)   Y(AU)   Z(AU)  N. TYPE  EXPONENT  S COEF   P COEF   D/F/G COEF
 *******************************************************************************
   1 C    1.686   1.686   1.686
                                  1 S  
                                         1.358E+04 2.225E-04 0.000E+00 0.000E+00
                                         2.035E+03 1.723E-03 0.000E+00 0.000E+00
                                         4.632E+02 8.926E-03 0.000E+00 0.000E+00
                                         1.312E+02 3.573E-02 0.000E+00 0.000E+00
                                         4.285E+01 1.108E-01 0.000E+00 0.000E+00
                                         1.558E+01 2.430E-01 0.000E+00 0.000E+00
                                  2 S  
                                         6.207E+00 4.144E-01 0.000E+00 0.000E+00
                                         2.576E+00 2.374E-01 0.000E+00 0.000E+00
                                  3 S  
                                         4.941E-01 1.000E+00 0.000E+00 0.000E+00
                                  4 S  
                                         1.644E-01 1.000E+00 0.000E+00 0.000E+00
                           5-     7 P  
                                         3.470E+01 0.000E+00 5.333E-03 0.000E+00
                                         7.958E+00 0.000E+00 3.586E-02 0.000E+00
                                         2.378E+00 0.000E+00 1.422E-01 0.000E+00
                                         8.143E-01 0.000E+00 3.427E-01 0.000E+00
                           8-    10 P  
                                         5.662E-01 0.000E+00 1.000E+00 0.000E+00
                          11-    13 P  
                                         2.674E-01 0.000E+00 1.000E+00 0.000E+00
                          14-    18 D  
                                         8.792E-01 0.000E+00 0.000E+00 1.000E+00
   2 C    0.000   0.000   0.000
   3 C   -5.057  -5.057   1.686
   4 C   -1.686  -1.686   1.686
   5 C    5.057   1.686   5.057
   6 C   -5.057   5.057   5.057
   7 C   -1.686  -5.057   5.057
   8 C    1.686  -1.686   5.057
   9 C   -5.057   1.686  -5.057
  10 C   -1.686   5.057  -5.057
  11 C    1.686  -5.057  -5.057
  12 C    5.057  -1.686  -5.057
  13 C   -1.686   1.686  -1.686
  14 C    1.686   5.057  -1.686
  15 C    5.057  -5.057  -1.686
  16 C   -5.057  -1.686  -1.686
  17 C    1.686   5.057   5.057
  18 C    5.057  -5.057   5.057
  19 C   -5.057  -1.686   5.057
  20 C   -1.686   1.686   5.057
  21 C    5.057   5.057  -5.057
  22 C   -5.057  -5.057  -5.057
  23 C   -1.686  -1.686  -5.057
  24 C    1.686   1.686  -5.057
  25 C   -5.057   5.057  -1.686
  26 C   -1.686  -5.057  -1.686
  27 C    1.686  -1.686  -1.686
  28 C    5.057   1.686  -1.686
  29 C   -1.686   5.057   1.686
  30 C    1.686  -5.057   1.686
  31 C    5.057  -1.686   1.686
  32 C   -5.057   1.686   1.686
  33 C    5.057   5.057   1.686
  34 C    3.372   3.372   0.000
  35 C    6.743   6.743   0.000
  36 C   -3.372  -3.372   0.000
  37 C    3.372   0.000   3.372
  38 C    6.743   3.372   3.372
  39 C   -3.372   6.743   3.372
  40 C    0.000  -3.372   3.372
  41 C    6.743   0.000   6.743
  42 C   -3.372   3.372   6.743
  43 C    0.000   6.743   6.743
  44 C    3.372  -3.372   6.743
  45 C   -3.372   0.000  -3.372
  46 C    0.000   3.372  -3.372
  47 C    3.372   6.743  -3.372
  48 C    6.743  -3.372  -3.372
  49 C    0.000   3.372   3.372
  50 C    3.372   6.743   3.372
  51 C    6.743  -3.372   3.372
  52 C   -3.372   0.000   3.372
  53 C    3.372   3.372   6.743
  54 C    6.743   6.743   6.743
  55 C   -3.372  -3.372   6.743
  56 C    0.000   0.000   6.743
  57 C    6.743   3.372  -3.372
  58 C   -3.372   6.743  -3.372
  59 C    0.000  -3.372  -3.372
  60 C    3.372   0.000  -3.372
  61 C   -3.372   3.372   0.000
  62 C    0.000   6.743   0.000
  63 C    3.372  -3.372   0.000
  64 C    6.743   0.000   0.000
 INFORMATION **** SET_MPP **** PCRYSTAL CALCULATION
 INFORMATION **** READM2 **** NEW DEFAULT: FOCK/KS MATRIX MIXING SET TO 30 %
 INFORMATION **** READM2 **** NEW DEFAULT: FULL DIRECT SCF MODE
 INFORMATION **** READM2 **** NEW DEFAULT: COULOMB BIPOLAR BUFFER SET TO 32 Mb
 INFORMATION **** READM2 **** NEW DEFAULT: EXCHANGE BIPOLAR BUFFER SET TO 32 Mb

 *******************************************************************************
 NEW DEFAULT: DFT INTEGRATION GRID INCREASED TO XLGRID
 NEW DEFAULT: DIIS ACCELERATOR ACTIVE
 USE KEYWORD NODIIS TO TURN IT OFF
 *******************************************************************************

 INFORMATION **** TOLDEE **** SCF TOL ON TOTAL ENERGY SET TO          10
 *******************************************************************************
 N. OF ATOMS PER CELL        64  COULOMB OVERLAP TOL         (T1) 10**   -6
 NUMBER OF SHELLS           512  COULOMB PENETRATION TOL     (T2) 10**   -6
 NUMBER OF AO              1152  EXCHANGE OVERLAP TOL        (T3) 10**   20
 N. OF ELECTRONS PER CELL   384  EXCHANGE PSEUDO OVP (F(G))  (T4) 10**   20
 CORE ELECTRONS PER CELL    128  EXCHANGE PSEUDO OVP (P(G))  (T5) 10**   20
 N. OF SYMMETRY OPERATORS    24  POLE ORDER IN MONO ZONE                  4
 *******************************************************************************
 TYPE OF CALCULATION :  RESTRICTED CLOSED SHELL
 KOHN-SHAM HAMILTONIAN

 (EXCHANGE)[CORRELATION] FUNCTIONAL:(PERDEW-BURKE-ERNZERHOF)[PERDEW-BURKE-ERNZERHOF]


 CAPPA:IS1  2;IS2  2;IS3  2; K PTS MONK NET   4; SYMMOPS:K SPACE  48;G SPACE  24

 *******************************************************************************
 MAX NUMBER OF SCF CYCLES      50  CONVERGENCE ON DELTAP        10**-20
 WEIGHT OF F(I) IN F(I+1)      30% CONVERGENCE ON ENERGY        10**-10
 SHRINK. FACT.(MONKH.)    2  2  2  NUMBER OF K POINTS IN THE IBZ      4
 SHRINKING FACTOR(GILAT NET)    2  NUMBER OF K POINTS(GILAT NET)      4
 *******************************************************************************
 *** K POINTS COORDINATES (OBLIQUE COORDINATES IN UNITS OF IS =  2)
   1-R(  0  0  0)   2-R(  1  0  0)   3-R(  1  1  0)   4-R(  1  1  1)

 DIRECT LATTICE VECTORS COMPON. (A.U.)     RECIP. LATTICE VECTORS COMPON. (A.U.) 
        X            Y            Z              X            Y            Z
   13.4860251    0.0000000    0.0000000      0.4659034    0.0000000    0.0000000
    0.0000000   13.4860251    0.0000000      0.0000000    0.4659034    0.0000000
    0.0000000    0.0000000   13.4860251      0.0000000    0.0000000    0.4659034

 DISK SPACE FOR EIGENVECTORS (FTN 10)     5308416 REALS

 SYMMETRY ADAPTION OF THE BLOCH FUNCTIONS ENABLED
 TTTTTTTTTTTTTTTTTTTTTTTTTTTTTT gordsh1     TELAPSE        0.19 TCPU        0.17

 MATRIX SIZE: P(G)  917504, F(G)  459328, P(G) IRR   27086, F(G) IRR   27086
 MAX G-VECTOR INDEX FOR 1- AND 2-ELECTRON INTEGRALS  27

 TTTTTTTTTTTTTTTTTTTTTTTTTTTTTT INPUT       TELAPSE        0.23 TCPU        0.20

 NEIGHBORS OF THE NON-EQUIVALENT ATOMS

 N = NUMBER OF NEIGHBORS AT DISTANCE R
    ATOM  N     R/ANG      R/AU   NEIGHBORS (ATOM LABELS AND CELL INDICES)
   1 C    4     1.5451     2.9198    2 C    0 0 0   34 C    0 0 0   37 C    0 0 0
                                    49 C    0 0 0
   1 C   12     2.5231     4.7680    4 C    0 0 0    5 C    0 0 0    8 C    0 0 0
                                    13 C    0 0 0   14 C    0 0 0   17 C    0 0 0
                                    20 C    0 0 0   27 C    0 0 0   28 C    0 0 0
                                    29 C    0 0 0   31 C    0 0 0   33 C    0 0 0
   1 C   12     2.9586     5.5910   38 C    0 0 0   40 C    0 0 0   46 C    0 0 0
                                    50 C    0 0 0   52 C    0 0 0   53 C    0 0 0
                                    56 C    0 0 0   60 C    0 0 0   61 C    0 0 0
                                    62 C    0 0 0   63 C    0 0 0   64 C    0 0 0
   1 C    6     3.5682     6.7430   24 C    0 0 0   24 C    0 0 1   30 C    0 0 0
                                    30 C    0 1 0   32 C    0 0 0   32 C    1 0 0
   1 C   12     3.8884     7.3480   35 C    0 0 0   36 C    0 0 0   39 C    0 0 0
                                    41 C    0 0 0   42 C    0 0 0   43 C    0 0 0
                                    44 C    0 0 0   45 C    0 0 0   47 C    0 0 0
                                    51 C    0 0 0   57 C    0 0 0   59 C    0 0 0
   1 C   24     4.3702     8.2585    6 C    0 0 0    6 C    1 0 0    7 C    0 0 0
                                     7 C    0 1 0   10 C    0 0 0   10 C    0 0 1
                                    12 C    0 0 0   12 C    0 0 1   15 C    0 0 0
                                    15 C    0 1 0   16 C    0 0 0   16 C    1 0 0
                                    18 C    0 0 0   18 C    0 1 0   19 C    0 0 0
                                    19 C    1 0 0   21 C    0 0 0   21 C    0 0 1
                                    23 C    0 0 0   23 C    0 0 1   25 C    0 0 0
                                    25 C    1 0 0   26 C    0 0 0   26 C    0 1 0

   2 C    4     1.5451     2.9198    1 C    0 0 0    4 C    0 0 0   13 C    0 0 0
                                    27 C    0 0 0
   2 C   12     2.5231     4.7680   34 C    0 0 0   36 C    0 0 0   37 C    0 0 0
                                    40 C    0 0 0   45 C    0 0 0   46 C    0 0 0
                                    49 C    0 0 0   52 C    0 0 0   59 C    0 0 0
                                    60 C    0 0 0   61 C    0 0 0   63 C    0 0 0
   2 C   12     2.9586     5.5910    8 C    0 0 0   14 C    0 0 0   16 C    0 0 0
                                    20 C    0 0 0   23 C    0 0 0   24 C    0 0 0
                                    26 C    0 0 0   28 C    0 0 0   29 C    0 0 0
                                    30 C    0 0 0   31 C    0 0 0   32 C    0 0 0
   2 C    6     3.5682     6.7430   56 C    0 0 0   56 C    0 0-1   62 C    0 0 0
                                    62 C    0-1 0   64 C    0 0 0   64 C   -1 0 0
   2 C   12     3.8884     7.3480    3 C    0 0 0    5 C    0 0 0    7 C    0 0 0
                                     9 C    0 0 0   10 C    0 0 0   11 C    0 0 0
                                    12 C    0 0 0   15 C    0 0 0   17 C    0 0 0
                                    19 C    0 0 0   25 C    0 0 0   33 C    0 0 0
   2 C   24     4.3702     8.2585   38 C    0 0 0   38 C   -1 0 0   39 C    0-1 0
                                    39 C    0 0 0   42 C    0 0-1   42 C    0 0 0
                                    44 C    0 0-1   44 C    0 0 0   47 C    0-1 0
                                    47 C    0 0 0   48 C    0 0 0   48 C   -1 0 0
                                    50 C    0 0 0   50 C    0-1 0   51 C   -1 0 0
                                    51 C    0 0 0   53 C    0 0 0   53 C    0 0-1
                                    55 C    0 0 0   55 C    0 0-1   57 C   -1 0 0
                                    57 C    0 0 0   58 C    0 0 0   58 C    0-1 0

   3 C    4     1.5451     2.9198   35 C   -1-1 0   36 C    0 0 0   39 C    0-1 0
                                    51 C   -1 0 0
   3 C   12     2.5231     4.7680    4 C    0 0 0    6 C    0-1 0    7 C    0 0 0
                                    15 C   -1 0 0   16 C    0 0 0   18 C   -1 0 0
                                    19 C    0 0 0   25 C    0-1 0   26 C    0 0 0
                                    29 C    0-1 0   31 C   -1 0 0   33 C   -1-1 0
   3 C   12     2.9586     5.5910   38 C   -1-1 0   40 C    0 0 0   48 C   -1 0 0
                                    50 C   -1-1 0   52 C    0 0 0   54 C   -1-1 0
                                    55 C    0 0 0   58 C    0-1 0   61 C    0-1 0
                                    62 C    0-1 0   63 C   -1 0 0   64 C   -1 0 0
   3 C    6     3.5682     6.7430   22 C    0 0 0   22 C    0 0 1   30 C    0 0 0
                                    30 C   -1 0 0   32 C    0 0 0   32 C    0-1 0
   3 C   12     3.8884     7.3480    2 C    0 0 0   34 C   -1-1 0   37 C   -1 0 0
                                    41 C   -1 0 0   42 C    0-1 0   43 C    0-1 0
                                    44 C   -1 0 0   45 C    0 0 0   47 C   -1-1 0
                                    49 C    0-1 0   57 C   -1-1 0   59 C    0 0 0
   3 C   24     4.3702     8.2585    5 C   -1 0 0    5 C   -1-1 0    8 C    0 0 0
                                     8 C   -1 0 0   10 C    0-1 0   10 C    0-1 1
                                    12 C   -1 0 0   12 C   -1 0 1   13 C    0 0 0
                                    13 C    0-1 0   14 C    0-1 0   14 C   -1-1 0
                                    17 C    0-1 0   17 C   -1-1 0   20 C    0 0 0
                                    20 C    0-1 0   21 C   -1-1 0   21 C   -1-1 1
                                    23 C    0 0 0   23 C    0 0 1   27 C    0 0 0
                                    27 C   -1 0 0   28 C   -1 0 0   28 C   -1-1 0

   6 C    4     1.5451     2.9198   38 C   -1 0 0   39 C    0 0 0   42 C    0 0 0
                                    54 C   -1 0 0
   6 C   12     2.5231     4.7680    3 C    0 1 0    5 C   -1 0 0    7 C    0 1 0
                                     9 C    0 0 1   10 C    0 0 1   18 C   -1 1 0
                                    20 C    0 0 0   21 C   -1 0 1   22 C    0 1 1
                                    29 C    0 0 0   32 C    0 0 0   33 C   -1 0 0
   6 C   12     2.9586     5.5910   35 C   -1 0 0   41 C   -1 0 0   43 C    0 0 0
                                    49 C    0 0 0   50 C   -1 0 0   51 C   -1 1 0
                                    52 C    0 0 0   53 C   -1 0 0   55 C    0 1 0
                                    57 C   -1 0 1   58 C    0 0 1   61 C    0 0 0
   6 C    6     3.5682     6.7430   17 C    0 0 0   17 C   -1 0 0   19 C    0 0 0
                                    19 C    0 1 0   25 C    0 0 0   25 C    0 0 1
   6 C   12     3.8884     7.3480   34 C   -1 0 0   36 C    0 1 0   37 C   -1 0 0
                                    40 C    0 1 0   44 C   -1 1 0   45 C    0 0 1
                                    46 C    0 0 1   47 C   -1 0 1   48 C   -1 1 1
                                    56 C    0 0 0   62 C    0 0 0   64 C   -1 0 0
   6 C   24     4.3702     8.2585    1 C    0 0 0    1 C   -1 0 0    4 C    0 0 0
                                     4 C    0 1 0   11 C    0 1 1   11 C   -1 1 1
                                    12 C   -1 0 1   12 C   -1 1 1   13 C    0 0 0
                                    13 C    0 0 1   15 C   -1 1 0   15 C   -1 1 1
                                    23 C    0 0 1   23 C    0 1 1   24 C    0 0 1
                                    24 C   -1 0 1   26 C    0 1 0   26 C    0 1 1
                                    28 C   -1 0 0   28 C   -1 0 1   30 C    0 1 0
                                    30 C   -1 1 0   31 C   -1 0 0   31 C   -1 1 0

   8 C    4     1.5451     2.9198   37 C    0 0 0   40 C    0 0 0   44 C    0 0 0
                                    56 C    0 0 0
   8 C   12     2.5231     4.7680    1 C    0 0 0    4 C    0 0 0    5 C    0 0 0
                                     7 C    0 0 0   11 C    0 0 1   12 C    0 0 1
                                    18 C    0 0 0   20 C    0 0 0   23 C    0 0 1
                                    24 C    0 0 1   30 C    0 0 0   31 C    0 0 0
   8 C   12     2.9586     5.5910    2 C    0 0 0   41 C    0 0 0   43 C    0-1 0
                                    49 C    0 0 0   50 C    0-1 0   51 C    0 0 0
                                    52 C    0 0 0   53 C    0 0 0   55 C    0 0 0
                                    59 C    0 0 1   60 C    0 0 1   63 C    0 0 0
   8 C    6     3.5682     6.7430   17 C    0 0 0   17 C    0-1 0   19 C    0 0 0
                                    19 C    1 0 0   27 C    0 0 0   27 C    0 0 1
   8 C   12     3.8884     7.3480   34 C    0 0 0   36 C    0 0 0   38 C    0 0 0
                                    39 C    0-1 0   42 C    0 0 0   45 C    0 0 1
                                    46 C    0 0 1   47 C    0-1 1   48 C    0 0 1
                                    54 C    0-1 0   62 C    0-1 0   64 C    0 0 0
   8 C   24     4.3702     8.2585    3 C    0 0 0    3 C    1 0 0    9 C    0 0 1
                                     9 C    1 0 1   10 C    0 0 1   10 C    0-1 1
                                    13 C    0 0 0   13 C    0 0 1   15 C    0 0 0
                                    15 C    0 0 1   21 C    0 0 1   21 C    0-1 1
                                    22 C    0 0 1   22 C    1 0 1   26 C    0 0 0
                                    26 C    0 0 1   28 C    0 0 0   28 C    0 0 1
                                    29 C    0 0 0   29 C    0-1 0   32 C    0 0 0
                                    32 C    1 0 0   33 C    0 0 0   33 C    0-1 0

  34 C    4     1.5451     2.9198    1 C    0 0 0   14 C    0 0 0   28 C    0 0 0
                                    33 C    0 0 0
  34 C   12     2.5231     4.7680    2 C    0 0 0   35 C    0 0 0   37 C    0 0 0
                                    38 C    0 0 0   46 C    0 0 0   47 C    0 0 0
                                    49 C    0 0 0   50 C    0 0 0   57 C    0 0 0
                                    60 C    0 0 0   62 C    0 0 0   64 C    0 0 0
  34 C   12     2.9586     5.5910    5 C    0 0 0   13 C    0 0 0   15 C    0 1 0
                                    17 C    0 0 0   21 C    0 0 0   24 C    0 0 0
                                    25 C    1 0 0   27 C    0 0 0   29 C    0 0 0
                                    30 C    0 1 0   31 C    0 0 0   32 C    1 0 0
  34 C    6     3.5682     6.7430   53 C    0 0 0   53 C    0 0-1   61 C    0 0 0
                                    61 C    1 0 0   63 C    0 0 0   63 C    0 1 0
  34 C   12     3.8884     7.3480    3 C    1 1 0    4 C    0 0 0    6 C    1 0 0
                                     8 C    0 0 0    9 C    1 0 0   10 C    0 0 0
                                    11 C    0 1 0   12 C    0 0 0   16 C    1 0 0
                                    18 C    0 1 0   20 C    0 0 0   26 C    0 1 0
  34 C   24     4.3702     8.2585   39 C    0 0 0   39 C    1 0 0   40 C    0 0 0
                                    40 C    0 1 0   41 C    0 0 0   41 C    0 0-1
                                    43 C    0 0 0   43 C    0 0-1   45 C    0 0 0
                                    45 C    1 0 0   48 C    0 0 0   48 C    0 1 0
                                    51 C    0 0 0   51 C    0 1 0   52 C    0 0 0
                                    52 C    1 0 0   54 C    0 0 0   54 C    0 0-1
                                    56 C    0 0 0   56 C    0 0-1   58 C    0 0 0
                                    58 C    1 0 0   59 C    0 0 0   59 C    0 1 0

  35 C    4     1.5451     2.9198    3 C    1 1 0   15 C    0 1 0   25 C    1 0 0
                                    33 C    0 0 0
  35 C   12     2.5231     4.7680   34 C    0 0 0   36 C    1 1 0   38 C    0 0 0
                                    39 C    1 0 0   47 C    0 0 0   48 C    0 1 0
                                    50 C    0 0 0   51 C    0 1 0   57 C    0 0 0
                                    58 C    1 0 0   61 C    1 0 0   63 C    0 1 0
  35 C   12     2.9586     5.5910    6 C    1 0 0   14 C    0 0 0   16 C    1 1 0
                                    18 C    0 1 0   21 C    0 0 0   22 C    1 1 0
                                    26 C    1 1 0   28 C    0 0 0   29 C    1 0 0
                                    30 C    0 1 0   31 C    0 1 0   32 C    1 0 0
  35 C    6     3.5682     6.7430   54 C    0 0 0   54 C    0 0-1   62 C    0 0 0
                                    62 C    1 0 0   64 C    0 0 0   64 C    0 1 0
  35 C   12     3.8884     7.3480    1 C    0 0 0    4 C    1 1 0    5 C    0 0 0
                                     7 C    1 1 0    9 C    1 0 0   10 C    1 0 0
                                    11 C    0 1 0   12 C    0 1 0   13 C    1 0 0
                                    17 C    0 0 0   19 C    1 1 0   27 C    0 1 0
  35 C   24     4.3702     8.2585   37 C    0 0 0   37 C    0 1 0   40 C    1 1 0
                                    40 C    0 1 0   42 C    1 0 0   42 C    1 0-1
                                    44 C    0 1 0   44 C    0 1-1   45 C    1 0 0
                                    45 C    1 1 0   46 C    1 0 0   46 C    0 0 0
                                    49 C    0 0 0   49 C    1 0 0   52 C    1 1 0
                                    52 C    1 0 0   53 C    0 0-1   53 C    0 0 0
                                    55 C    1 1-1   55 C    1 1 0   59 C    0 1 0
                                    59 C    1 1 0   60 C    0 1 0   60 C    0 0 0

  38 C    4     1.5451     2.9198    5 C    0 0 0    6 C    1 0 0   32 C    1 0 0
                                    33 C    0 0 0
  38 C   12     2.5231     4.7680   34 C    0 0 0   35 C    0 0 0   37 C    0 0 0
                                    39 C    1 0 0   41 C    0 0 0   42 C    1 0 0
                                    50 C    0 0 0   52 C    1 0 0   53 C    0 0 0
                                    54 C    0 0 0   61 C    1 0 0   64 C    0 0 0
  38 C   12     2.9586     5.5910    1 C    0 0 0    3 C    1 1 0    9 C    1 0 1
                                    17 C    0 0 0   18 C    0 1 0   19 C    1 0 0
                                    20 C    1 0 0   21 C    0 0 1   25 C    1 0 0
                                    28 C    0 0 0   29 C    1 0 0   31 C    0 0 0
  38 C    6     3.5682     6.7430   49 C    0 0 0   49 C    1 0 0   51 C    0 0 0
                                    51 C    0 1 0   57 C    0 0 0   57 C    0 0 1
  38 C   12     3.8884     7.3480    4 C    1 0 0    7 C    1 1 0    8 C    0 0 0
                                    10 C    1 0 1   12 C    0 0 1   13 C    1 0 0
                                    14 C    0 0 0   15 C    0 1 0   16 C    1 0 0
                                    22 C    1 1 1   24 C    0 0 1   30 C    0 1 0
  38 C   24     4.3702     8.2585    2 C    0 0 0    2 C    1 0 0   36 C    1 0 0
                                    36 C    1 1 0   43 C    1 0 0   43 C    0 0 0
                                    44 C    0 0 0   44 C    0 1 0   45 C    1 0 0
                                    45 C    1 0 1   47 C    0 0 0   47 C    0 0 1
                                    55 C    1 0 0   55 C    1 1 0   56 C    0 0 0
                                    56 C    1 0 0   58 C    1 0 0   58 C    1 0 1
                                    60 C    0 0 0   60 C    0 0 1   62 C    0 0 0
                                    62 C    1 0 0   63 C    0 0 0   63 C    0 1 0

  54 C    4     1.5451     2.9198    6 C    1 0 0   18 C    0 1 0   21 C    0 0 1
                                    22 C    1 1 1
  54 C   12     2.5231     4.7680   38 C    0 0 0   39 C    1 0 0   42 C    1 0 0
                                    44 C    0 1 0   47 C    0 0 1   48 C    0 1 1
                                    50 C    0 0 0   51 C    0 1 0   53 C    0 0 0
                                    55 C    1 1 0   57 C    0 0 1   58 C    1 0 1
  54 C   12     2.9586     5.5910    3 C    1 1 0    5 C    0 0 0    7 C    1 1 0
                                     9 C    1 0 1   10 C    1 0 1   11 C    0 1 1
                                    12 C    0 1 1   15 C    0 1 1   17 C    0 0 0
                                    19 C    1 1 0   25 C    1 0 1   33 C    0 0 0
  54 C    6     3.5682     6.7430   35 C    0 0 0   35 C    0 0 1   41 C    0 0 0
                                    41 C    0 1 0   43 C    0 0 0   43 C    1 0 0
  54 C   12     3.8884     7.3480    8 C    0 1 0   14 C    0 0 1   16 C    1 1 1
                                    20 C    1 0 0   23 C    1 1 1   24 C    0 0 1
                                    26 C    1 1 1   28 C    0 0 1   29 C    1 0 0
                                    30 C    0 1 0   31 C    0 1 0   32 C    1 0 0
  54 C   24     4.3702     8.2585   34 C    0 0 0   34 C    0 0 1   36 C    1 1 0
                                    36 C    1 1 1   37 C    0 0 0   37 C    0 1 0
                                    40 C    1 1 0   40 C    0 1 0   45 C    1 0 1
                                    45 C    1 1 1   46 C    1 0 1   46 C    0 0 1
                                    49 C    0 0 0   49 C    1 0 0   52 C    1 1 0
                                    52 C    1 0 0   59 C    0 1 1   59 C    1 1 1
                                    60 C    0 1 1   60 C    0 0 1   61 C    1 0 1
                                    61 C    1 0 0   63 C    0 1 1   63 C    0 1 0

  56 C    4     1.5451     2.9198    8 C    0 0 0   20 C    0 0 0   23 C    0 0 1
                                    24 C    0 0 1
  56 C   12     2.5231     4.7680   37 C    0 0 0   40 C    0 0 0   42 C    0 0 0
                                    44 C    0 0 0   45 C    0 0 1   46 C    0 0 1
                                    49 C    0 0 0   52 C    0 0 0   53 C    0 0 0
                                    55 C    0 0 0   59 C    0 0 1   60 C    0 0 1
  56 C   12     2.9586     5.5910    1 C    0 0 0    4 C    0 0 0    5 C    0 0 0
                                     7 C    0 0 0    9 C    0 0 1   10 C    0 0 1
                                    11 C    0 0 1   12 C    0 0 1   13 C    0 0 1
                                    17 C    0 0 0   19 C    0 0 0   27 C    0 0 1
  56 C    6     3.5682     6.7430    2 C    0 0 0    2 C    0 0 1   41 C    0 0 0
                                    41 C   -1 0 0   43 C    0 0 0   43 C    0-1 0
  56 C   12     3.8884     7.3480    6 C    0 0 0   14 C    0 0 1   16 C    0 0 1
                                    18 C    0 0 0   21 C    0 0 1   22 C    0 0 1
                                    26 C    0 0 1   28 C    0 0 1   29 C    0 0 0
                                    30 C    0 0 0   31 C    0 0 0   32 C    0 0 0
  56 C   24     4.3702     8.2585   34 C    0 0 0   34 C    0 0 1   36 C    0 0 0
                                    36 C    0 0 1   38 C    0 0 0   38 C   -1 0 0
                                    39 C    0-1 0   39 C    0 0 0   47 C    0-1 1
                                    47 C    0 0 1   48 C    0 0 1   48 C   -1 0 1
                                    50 C    0 0 0   50 C    0-1 0   51 C   -1 0 0
                                    51 C    0 0 0   57 C   -1 0 1   57 C    0 0 1
                                    58 C    0 0 1   58 C    0-1 1   61 C    0 0 1
                                    61 C    0 0 0   63 C    0 0 1   63 C    0 0 0


 SYMMETRY ALLOWED INTERNAL DEGREE(S) OF FREEDOM:  10
 TTTTTTTTTTTTTTTTTTTTTTTTTTTTTT SYMM        TELAPSE        0.25 TCPU        0.22
 TTTTTTTTTTTTTTTTTTTTTTTTTTTTTT INT_SCREEN  TELAPSE        0.26 TCPU        0.23

 *******************************************************************************
 *                                                                             *
 *                                                                             *
 *         FFFFF  RRRR   EEEE   QQQ   U   U  EEEE  N   N   CCC  Y   Y          *
 *         F      R   R  E     Q   Q  U   U  E     NN  N  C      Y Y           *
 *         FFF    RRRR   EEEE  Q   Q  U   U  EEEE  N N N  C       Y            *
 *         F      R   R  E     Q  QQ  U   U  E     N  NN  C       Y            *
 *         F      R   R  EEEE   QQ Q   UUU   EEEE  N   N   CCC    Y            *
 *                                                                             *
 *                                                                             *
 * CALCULATION OF PHONON FREQUENCIES AT A SET OF K POINTS BY USING A SUPERCELL *
 * SCHEME. THE FOLLOWING SUPERCELL HAS BEEN USED:                              *
 *    -2.000     2.000     2.000                                               *
 *     2.000    -2.000     2.000                                               *
 *     2.000     2.000    -2.000                                               *
 * THAT PERMITS THE CALCULATION OF MODES AT    32 K POINTS                     *
 * INTENSITIES COMPUTED VIA THE BERRY PHASE APPROACH                           *
 *                                                                             *
 * REFERENCES TO BE QUOTED WHEN USING THIS MODULE:                             *
 *                                                                             *
 * F. Pascale, C.M. Zicovich-Wilson, F. Lopez, B. Civalleri                    *
 * R. Orlando, R. Dovesi                                                       *
 * The calculation of the vibration frequencies of crystalline                 *
 * compounds and its implementation in the CRYSTAL code                        *
 * J. Comput. Chem. 25 (2004) 888-897                                          *
 *                                                                             *
 * C.M. Zicovich-Wilson, F. Pascale, C. Roetti, V.R. Saunders,                 *
 * R. Orlando, R. Dovesi                                                       *
 * The calculation of the vibration frequencies of alpha-quartz:               *
 * the effect of hamiltonian and basis set                                     *
 * J. Comput. Chem. 25 (2004) 1873-1881                                        *
 *******************************************************************************



 ATOMS ISOTOPIC MASS (AMU) FOR FREQUENCY CALCULATION 

    1 C      12.0000    2 C      12.0000    3 C      12.0000    4 C      12.0000
    5 C      12.0000    6 C      12.0000    7 C      12.0000    8 C      12.0000
    9 C      12.0000   10 C      12.0000   11 C      12.0000   12 C      12.0000
   13 C      12.0000   14 C      12.0000   15 C      12.0000   16 C      12.0000
   17 C      12.0000   18 C      12.0000   19 C      12.0000   20 C      12.0000
   21 C      12.0000   22 C      12.0000   23 C      12.0000   24 C      12.0000
   25 C      12.0000   26 C      12.0000   27 C      12.0000   28 C      12.0000
   29 C      12.0000   30 C      12.0000   31 C      12.0000   32 C      12.0000
   33 C      12.0000   34 C      12.0000   35 C      12.0000   36 C      12.0000
   37 C      12.0000   38 C      12.0000   39 C      12.0000   40 C      12.0000
   41 C      12.0000   42 C      12.0000   43 C      12.0000   44 C      12.0000
   45 C      12.0000   46 C      12.0000   47 C      12.0000   48 C      12.0000
   49 C      12.0000   50 C      12.0000   51 C      12.0000   52 C      12.0000
   53 C      12.0000   54 C      12.0000   55 C      12.0000   56 C      12.0000
   57 C      12.0000   58 C      12.0000   59 C      12.0000   60 C      12.0000
   61 C      12.0000   62 C      12.0000   63 C      12.0000   64 C      12.0000
    
 *******************************************************************************
 * ACTIVATED INTERPOLATION OF THE HESSIAN UP TO      2048 K POINTS             *
 *******************************************************************************
    
 * WITH SHRINKING FACTORS: IS1 =    16 IS2 =    16 IS3 =    16                 *
 * AND RECIPROCAL LATTICE VECTORS:                                             *
 *      -1.7608598    1.7608598    1.7608598                                   *
 *       1.7608598   -1.7608598    1.7608598                                   *
 *       1.7608598    1.7608598   -1.7608598                                   *
 *******************************************************************************

 INFORMATION CONCERNING THE SCF+GRADIENT CALCULATIONS REQUIRED FOR
 GENERATING FREQUENCIES. IN PRINCIPLE 3N+1 SCF + GRADIENT
 CALCULATIONS  ARE REQUIRED;
 FOR EACH OF THEM THE REMAINING POINT SYMMETRY IS INDICATED.
 POINT SYMMETRY PERMITS TO GENERATE GRADIENTS FOR DISPLACEMENT B 
 STARTING FROM THE GRADIENT GENERATED BY DISPLACEMENT A.

   N   LABEL SYMBOL DISPLACEMENT     SYM. 

   1     EQUILIBRIUM GEOMETRY           24

   2      1   C            DX           2
   3      1   C            DY        GENERATED FROM LINE X WITH OP   6
   4      1   C            DZ        GENERATED FROM LINE X WITH OP   5
 USE OF RESIDUAL SYMMETRY AFTER DISPLACEMENT

 NUMERICAL GRADIENT COMPUTED WITH A SINGLE DISPLACEMENT (+DX) FOR EACH
 CARTESIAN COORDINATE WITH RESPECT TO THE EQUILIBRIUM CONFIGURATION
 DX=  0.003 ANGSTROM
 NUMBER OF IRREDUCIBLE ATOMS                     1
 NUMBER OF SCF+GRADIENT CALCULATIONS             2

  ATOM  SYMOP  ORDER
    1      6      3

 ATOM  : IRREDUCIBLE ATOM
 SYMOP : NUMBER OF SYMMETRY OPERATORS THAT DOESN'T MOVE THE IRREDUCIBLE ATOM
 ORDER : MAXIMUM ORDER AMONG THE OPERATORS OF THE IRREDUCIBLE ATOM

 *******************************************************************************


 GCALCO - MAX INDICES DIRECT LATTICE VECTOR    14    14    14
 NO.OF VECTORS CREATED 6999 STARS  120 RMAX   160.13768 BOHR

 CAPPA:IS1  2;IS2  2;IS3  2; K PTS MONK NET   4; SYMMOPS:K SPACE  48;G SPACE  24

 TTTTTTTTTTTTTTTTTTTTTTTTTTTTTT gordsh1     TELAPSE        0.29 TCPU        0.26

 MATRIX SIZE: P(G)  917504, F(G)  459328, P(G) IRR   27086, F(G) IRR   27086
 MAX G-VECTOR INDEX FOR 1- AND 2-ELECTRON INTEGRALS  27

 TTTTTTTTTTTTTTTTTTTTTTTTTTTTTT INPUT       TELAPSE        0.32 TCPU        0.29

 SYMMETRY ALLOWED INTERNAL DEGREE(S) OF FREEDOM:  10
 TTTTTTTTTTTTTTTTTTTTTTTTTTTTTT SYMM        TELAPSE        0.34 TCPU        0.31
 TTTTTTTTTTTTTTTTTTTTTTTTTTTTTT INT_SCREEN  TELAPSE        0.35 TCPU        0.31

         THE FIRST POINT IS RESTORED FROM THE FREQINFO.DAT


 RESTART FROM  AN INCOMPLETE HESSIAN MATRIX


 HHHHHHHHHHHHHHHHHHHHHHHHHHHHHHHHHHHHHHHHHHHHHHHHHHHHHHHHHHHHHHHHHHHHHHHHHHHHHHH
                   FORCE CONSTANT MATRIX - NUMERICAL ESTIMATE
 HHHHHHHHHHHHHHHHHHHHHHHHHHHHHHHHHHHHHHHHHHHHHHHHHHHHHHHHHHHHHHHHHHHHHHHHHHHHHHH
 MAX ABS(DGRAD): MAXIMUM ABSOLUTE GRADIENT DIFFERENCE WITH RESPECT TO
                 THE CENTRAL POINT
 DE:             ENERGY DIFFERENCE WITH RESPECT TO THE CENTRAL POINT
                 (DE IS EXPECTED TO BE POSITIVE FOR ALL DISPLACEMENTS)

   ATOM      MAX ABS(DGRAD)       TOTAL ENERGY (AU)  N.CYC      DE       SYM
    CENTRAL POINT             -2.437053638056E+03     0     0.0000E+00    24
    1 C  DX                   RESTORED FROM A PREV. HESS. MATRIX
    1 C  DY                   GENERATED FROM A PREVIOUS LINE
    1 C  DZ                   GENERATED FROM A PREVIOUS LINE

 GCALCO - MAX INDICES DIRECT LATTICE VECTOR    14    14    14
 NO.OF VECTORS CREATED 6999 STARS  120 RMAX   160.13768 BOHR

 CAPPA:IS1  2;IS2  2;IS3  2; K PTS MONK NET   4; SYMMOPS:K SPACE  48;G SPACE  24

 TTTTTTTTTTTTTTTTTTTTTTTTTTTTTT gordsh1     TELAPSE        0.42 TCPU        0.38

 MATRIX SIZE: P(G)  917504, F(G)  459328, P(G) IRR   27086, F(G) IRR   27086
 MAX G-VECTOR INDEX FOR 1- AND 2-ELECTRON INTEGRALS  27

 TTTTTTTTTTTTTTTTTTTTTTTTTTTTTT INPUT       TELAPSE        0.44 TCPU        0.41

 SYMMETRY ALLOWED INTERNAL DEGREE(S) OF FREEDOM:  10
 TTTTTTTTTTTTTTTTTTTTTTTTTTTTTT SYMM        TELAPSE        0.47 TCPU        0.44
 TTTTTTTTTTTTTTTTTTTTTTTTTTTTTT INT_SCREEN  TELAPSE        0.47 TCPU        0.44

 GCALCO - MAX INDICES DIRECT LATTICE VECTOR    14    14    14
 NO.OF VECTORS CREATED 6999 STARS  105 RMAX    50.46009 BOHR
 TTTTTTTTTTTTTTTTTTTTTTTTTTTTTT gordsh1     TELAPSE        0.47 TCPU        0.44

 MATRIX SIZE: P(G)   28672, F(G)   14818, P(G) IRR    1047, F(G) IRR    1047
 MAX G-VECTOR INDEX FOR 1- AND 2-ELECTRON INTEGRALS 219

 TTTTTTTTTTTTTTTTTTTTTTTTTTTTTT INPUT       TELAPSE        0.47 TCPU        0.44

 THERE ARE NO SYMMETRY ALLOWED DIRECTIONS
 TTTTTTTTTTTTTTTTTTTTTTTTTTTTTT SYMM        TELAPSE        0.47 TCPU        0.44
 TTTTTTTTTTTTTTTTTTTTTTTTTTTTTT INT_SCREEN  TELAPSE        0.47 TCPU        0.44

 +++ SYMMETRY ADAPTION OF VIBRATIONAL MODES +++


 CLASS  | GROUP OPERATORS (SEE SYMMOPS KEYWORD)
 --------------------------------------------------------------------
 C2     |   2;   3;   4;
 C3     |   5;  11;   7;   9;   6;  12;  10;   8;
 C2'    |  13;  14;  17;  18;  23;  24;
 C4     |  15;  16;  19;  20;  21;  22;
 I      |  25;
 SGH    |  26;  27;  28;
 S6     |  29;  35;  31;  33;  30;  36;  34;  32;
 SGD    |  37;  38;  41;  42;  47;  48;
 S4     |  39;  40;  43;  44;  45;  46;

 IRREP/CLA      E     C2     C3    C2'     C4      I    SGH     S6    SGD     S4
 -------------------------------------------------------------------------------
  MULTIP |      1      3      8      6      6      1      3      8      6      6
 -------------------------------------------------------------------------------
    F2g  |   3.00  -1.00   0.00   1.00  -1.00   3.00  -1.00   0.00   1.00  -1.00
    F1u  |   3.00  -1.00   0.00  -1.00   1.00  -3.00   1.00   0.00   1.00  -1.00
 
 F2g-(3,   1);
 F1u-(3,   1);

 HHHHHHHHHHHHHHHHHHHHHHHHHHHHHHHHHHHHHHHHHHHHHHHHHHHHHHHHHHHHHHHHHHHHHHHHHHHHHH
 EIGENVALUES (EIGV) OF THE MASS WEIGHTED HESSIAN MATRIX AND HARMONIC TRANSVERSE
 OPTICAL (TO) FREQUENCIES. IRREP LABELS REFER TO SYMMETRY REPRESENTATION
 ANALYSIS; A AND I INDICATE WHETHER THE MODE IS ACTIVE OR INACTIVE,
 RESPECTIVELY, FOR IR AND RAMAN; INTEGRATED IR INTENSITIES IN BRACKETS.

 CONVERSION FACTORS FOR FREQUENCIES:
      1 CM**(-1) =   0.4556335E-05 HARTREE
      1 THZ      =   0.3335641E+02 CM**(-1)

 HHHHHHHHHHHHHHHHHHHHHHHHHHHHHHHHHHHHHHHHHHHHHHHHHHHHHHHHHHHHHHHHHHHHHHHHHHHHHH

    MODES         EIGV          FREQUENCIES     IRREP  IR   INTENS    RAMAN
             (HARTREE**2)   (CM**-1)     (THZ)             (KM/MOL)
    1-   3    0.7884E-21      0.0000    0.0000  (F1u)   A (     0.00)   I
    4-   6    0.3563E-04   1309.9874   39.2724  (F2g)   I (     0.00)   A

 NORMAL MODES NORMALIZED TO CLASSICAL AMPLITUDES (IN BOHR)

 FREQ(CM**-1)      0.00      0.00      0.00   1309.99   1309.99   1309.99

 AT.   1 C  X     0.2041    0.0000    0.0000    0.2041    0.0000    0.0000
            Y     0.0000    0.2041    0.0000    0.0000    0.2041    0.0000
            Z     0.0000    0.0000    0.2041    0.0000    0.0000    0.2041
 AT.   2 C  X     0.2041    0.0000    0.0000   -0.2041    0.0000    0.0000
            Y     0.0000    0.2041    0.0000    0.0000   -0.2041    0.0000
            Z     0.0000    0.0000    0.2041    0.0000    0.0000   -0.2041

 *******************************************************************************

 VIBRATIONAL TEMPERATURES (K) OF THE MODES AT THE GAMMA POINT

 TO MODES
  1884.8 [   4;]  1884.8 [   5;]  1884.8 [   6;]

 TTTTTTTTTTTTTTTTTTTTTTTTTTTTTTTTTTTTTTTTTTTTTTTTTTTTTTTTTTTTTTTTTTTTTTTTTTTTTTT

  THERMODYNAMICAL PROPERTIES ARE CALCULATED AS A SUM OVER 12285 MODES



 *******************************************************************************

 HARMONIC VIBRATIONAL CONTRIBUTIONS TO THERMODYNAMIC FUNCTIONS AT GIVEN
 TEMPERATURE AND PRESSURE:

 (EL = ELECTRONIC ENERGY
  E0 = ZERO-POINT ENERGY
  ET = THERMAL CONTRIBUTION TO THE VIBRATIONAL ENERGY
  PV = PRESSURE * VOLUME
  TS = TEMPERATURE * ENTROPY)

                          AU/CELL             EV/CELL                 KJ/MOL
 EL            :     -76.157926189247   -2072.362528484497     -199952.60703143
 E0            :       0.013392144375       0.364418775147          35.16107010


 *******************************************************************************

 THERMODYNAMIC FUNCTIONS WITH VIBRATIONAL CONTRIBUTIONS

 AT (T =  298.15 K, P =   0.10132500E+00 MPA):

                          AU/CELL             EV/CELL                 KJ/MOL
 ET            :       0.000395045142       0.010749724808           1.03719087
 PV            :       0.000000004125       0.000000112236           0.00001083
 TS            :       0.000528822338       0.014389987391           1.38842285
 ET+PV-TS      :      -0.000133773072      -0.003640150348          -0.35122115
 EL+E0+ET+PV-TS:     -76.144667817943   -2072.001749859699     -199917.79718248

 OTHER THERMODYNAMIC FUNCTIONS:

                      mHARTREE/(CELL*K)     mEV/(CELL*K)              J/(MOL*K)
 ENTROPY       :       0.001773678813       0.048264254206           4.65679307
 HEAT CAPACITY :       0.004651252356       0.126567011152          12.21186134

 *******************************************************************************
 TTTTTTTTTTTTTTTTTTTTTTTTTTTTTT END         TELAPSE        0.71 TCPU        0.68
 EEEEEEEEEE TERMINATION  DATE 09 09 2024 TIME 11:19:34.7
NODE    0 CPU TIME =         0.676
    TOTAL CPU TIME =         0.676
================================================================================
Time: Mon 09 Sep 2024 11:19:34 AM CEST
Job terminated
================================================================================
Copying output file back on run directory...
================================================================================
Removing temporary directory /scratch/tmp_p17373_erba from each node...
Job terminated
