Pcrystal executable in: /home/erba/Ambrogio/SVN_PUB_1335/bin/Linux_ifort_openmpi_i64_clut_new/mkl/Pcrystal
Master system: Linux node80 4.19.0-8-amd64 #1 SMP Debian 4.19.98-1 (2020-01-26) x86_64 GNU/Linux
================================================================================
Module loading
================================================================================
module load compiler/2021.4.0
Loading compiler version 2021.4.0
Loading tbb version 2021.6.0
Loading compiler-rt version 2022.1.0
Loading debugger version 2021.6.0
Loading dpl version 2021.7.0
Loading oclfpga version 2022.1.0

Loading compiler/2021.4.0
  Loading requirement: tbb/latest compiler-rt/latest debugger/latest dpl/latest
    oclfpga/latest

module load mkl/2021.4.0
Loading mkl version 2021.4.0

module load openmpi/4.1.1-i21.4
================================================================================
Starting Pcrystal SLURM job
================================================================================
Time: Mon 09 Sep 2024 05:37:33 PM CEST
SLURM job ID: 475029
Master hostname: node80
User: erba
mpirun executable in: /opt/openmpi-4.1.1-i21.4/bin/mpirun
Input file: diamond_bands.d12
Output file: /home/erba/Ambrogio/MSSC2024/phonon_dispersion/diamond_ex2/diamond_bands.out
Number of processors: 1
Nodes list: node80
================================================================================
Creating temporary directory /scratch/tmp_p20229_erba on each node...
Copying input file diamond_bands.d12 on each node...
Copying Pcrystal on each node...
================================================================================
Contents of input file:
DIAMOND - PHONON 
CRYSTAL
0 0 0
227
3.56824856
1
6  .125  .125   .125
SCELPHONO
-2 2 2
2 -2 2
2 2 -2
FREQCALC
DISPERSI
RESTART
BANDS
4 60
4
0 0 0  2 1 3
2 1 3  2 0 2
2 0 2  0 0 0
0 0 0  2 2 2
END
END
6 8
0 0 6 2.0 1.0
13575.349682 0.00022245814352
2035.2333680 0.00172327382520
463.22562359 0.00892557153140
131.20019598 0.03572798450200
42.853015891 0.11076259931000
15.584185766 0.24295627626000
0 0 2 2.0 1.0
6.2067138508 0.41440263448000
2.5764896527 0.23744968655000
0 0 1 0.0 1.0
0.4941102000 1.00000000000000
0 0 1 0.0 1.0
0.1644071000 1.00000000000000
0 2 4 2.0 1.0
34.697232244 0.00533336578050
7.9582622826 0.03586410909200
2.3780826883 0.14215873329000
0.8143320818 0.34270471845000
0 2 1 0.0 1.0
0.5662417100 1.00000000000000
0 2 1 0.0 1.0
0.2673545000 1.00000000000000
0 3 1 0.0 1.0
0.8791584200 1.00000000000000
99 0
END
DFT
PBE
END
SHRINK
2 2
TOLDEE
10
END
================================================================================
Time: Mon 09 Sep 2024 05:37:34 PM CEST
Starting Pcrystal job in /scratch/tmp_p20229_erba on each node...
================================================================================
[node80:20362] MCW rank 0 bound to socket 0[core 0[hwt 0]]: [B/././././././././.][./././././././././.]
 PROCESS            0  OF            1  WORKING
 Default number of threads is:            1

         
 *******************************************************************************
 *                                                                             *
 *                               CRYSTAL23                                     *
 *                      public : 1.0.1 - October 2022                          *
 *                       HTTP://WWW.CRYSTAL.UNITO.IT                           *
 *                                                                             *
 *                              MAIN AUTHORS                                   *
 *                                                                             *
 *  R. DOVESI(1,11), V.R. SAUNDERS(2), C. ROETTI(1,11), R. ORLANDO(1,11),      *
 *  C.M. ZICOVICH-WILSON(1,3), F. PASCALE(4), B. CIVALLERI(1,11),              *
 *  K. DOLL(5), N.M. HARRISON(6), I.J. BUSH(7), Ph. D'ARCO(8),                 *
 *  M. LLUNELL(9), M. CAUSA'(10), Y. NOEL(8), L. MASCHIO(1,11), A. ERBA(1,11)  *
 *  M. RE'RAT(14), S. CASASSA(1,11), B.G. SEARLE(2), J.K. DESMARAIS(1)         *
 *                                                                             *
 *        CONTRIBUTIONS TO THE CODE HAVE ALSO BEEN GIVEN BY                    *
 *                                                                             *
 *  M. FERRABONE(1,11), M. DE LA PIERRE(1,11), M. FERRERO(1,11),               *
 *  J. BAIMA(1,11), E. ALBANESE(1,11), M.F. PEINTINGER(12), R. BAST(13),       *
 *  B. KIRTMAN(15), V. LACIVITA(1,11), R. DEMICHELIS(1,16)                     *
 *  G. BRANDEBURG(17), S. SALUSTRO(1,11), G. SANSONE(1,11)                     *
 *  M.T. RUGGIERO(18), L.E. DAGA(1), L. DONA'(1), A. COSSARD(1)                *
 *                                                                             *
 * (1) THEORETICAL CHEMISTRY GROUP - UNIVERSITA' DI TORINO - TORINO (ITALY)    *
 * (2) SCIENTIFIC COMPUTING DEPARTMENT - STFC DARESBURY (UK)                   *
 * (3) UNIVERSIDAD AUTONOMA DEL ESTADO DE MORELOS - CUERNAVACA (MEXICO)        *
 * (4) UNIVERSITE' DE LORRAINE - NANCY (FRANCE)                                *
 * (5) UNIVERSITAET STUTTGART- STUTTGART (GERMANY)                             *
 * (6) IMPERIAL COLLEGE - LONDON (UK)                                          *
 * (7) SCIENTIFIC COMPUTING DEPARTMENT - STFC RAL (UK)                         *
 * (8) UPMC - SORBONNE UNIVERSITES - PARIS (FRANCE)                            *
 * (9) UNIVERSIDAD DE BARCELONA - BARCELONA (SPAIN)                            *
 *(10) UNIVERSITA' DI NAPOLI "FEDERICO II" - NAPOLI (ITALY)                    *
 *(11) NIS - NANOSTRUCTURED INTERFACES AND SURFACES - TORINO (ITALY)           *
 *(12) MPI FUER CHEMISCHE ENERGIEKONVERSION - MUELHEIM AN DER RUHR (GERMANY)   *
 *(13) UNIVERSITY OF TROMSO - TROMSO (NORWAY)                                  *
 *(14) UNIVERSITE' DE PAU ET DES PAYS DE L'ADOUR - PAU (FRANCE)                *
 *(15) UNIVERSITY OF CALIFORNIA SANTA BARBARA - SANTA BARBARA (USA)            *
 *(16) CURTIN UNIVERSITY - PERTH (AUSTRALIA)                                   *
 *(17) UNIVERSITY COLLEGE LONDON - LONDON (UK)                                 *
 *(18) UNIVERSITY OF VERMONT - BURLINGTON (USA)                                *
 *                                                                             *
 *******************************************************************************
 EEEEEEEEEE STARTING  DATE 09 09 2024 TIME 17:37:34.8
 DIAMOND - PHONON                                                                

 CRYSTAL CALCULATION
 (INPUT ACCORDING TO THE INTERNATIONAL TABLES FOR X-RAY CRYSTALLOGRAPHY)
 CRYSTAL FAMILY                       :  CUBIC       
 CRYSTAL CLASS  (GROTH - 1921)        :  CUBIC HEXAKISOCTAHEDRAL              

 SPACE GROUP (CENTROSYMMETRIC)        :  F D 3 M         

 LATTICE PARAMETERS  (ANGSTROMS AND DEGREES) - CONVENTIONAL CELL
        A           B           C        ALPHA        BETA       GAMMA
     3.56825     3.56825     3.56825    90.00000    90.00000    90.00000


 NUMBER OF IRREDUCIBLE ATOMS IN THE CONVENTIONAL CELL:    1

 INPUT COORDINATES

 ATOM AT. N.              COORDINATES
   1   6     1.250000000000E-01  1.250000000000E-01  1.250000000000E-01

 *******************************************************************************

 << INFORMATION >>: FROM NOW ON, ALL COORDINATES REFER TO THE PRIMITIVE CELL

 *******************************************************************************

 LATTICE PARAMETERS  (ANGSTROMS AND DEGREES) - PRIMITIVE CELL
       A          B          C        ALPHA      BETA     GAMMA        VOLUME
    2.52313    2.52313    2.52313    60.00000  60.00000  60.00000     11.358090

 COORDINATES OF THE EQUIVALENT ATOMS (FRACTIONAL UNITS)

 N. ATOM EQUIV AT. N.          X                  Y                  Z

   1   1   1    6 C     1.25000000000E-01  1.25000000000E-01  1.25000000000E-01
   2   1   2    6 C    -1.25000000000E-01 -1.25000000000E-01 -1.25000000000E-01

 NUMBER OF SYMMETRY OPERATORS         :   48
 *******************************************************************************
 * GEOMETRY EDITING - INPUT COORDINATES ARE GIVEN IN ANGSTROM         
 *******************************************************************************

 GEOMETRY NOW FULLY CONSISTENT WITH THE GROUP


 ATOMS TRANSLATED BY (FRACTIONAL)      0.12500      0.12500      0.12500
 ATOMS TRANSLATED BY (ANGSTROM)         0.44603      0.44603      0.44603
 NUMBER OF OPERATORS WITH FINITE TRANSLATORS HAS BEEN REDUCED FROM 36 TO 24

 REMOVAL OF SYMMOPS WITH FINITE TRANSLATIONAL COMPONENTS
 HAS REDUCED THEIR NUMBER FROM 48 TO 24

 GCALCO - MAX INDICES DIRECT LATTICE VECTOR    14    14    14
 NO.OF VECTORS CREATED 6999 STARS  105 RMAX    26.70233 BOHR

 *******************************************************************************
 * SUPERCELL OPTION
 *******************************************************************************


        EXPANSION MATRIX OF PRIMITIVE CELL
 E1    -2.000     2.000     2.000
 E2     2.000    -2.000     2.000
 E3     2.000     2.000    -2.000

 NUMBER OF ATOMS PER SUPERCELL    64

        DIRECT LATTICE VECTORS COMPONENTS (ANGSTROM)
 B1     7.136     0.000     0.000
 B2     0.000     7.136     0.000
 B3     0.000     0.000     7.136

 LATTICE PARAMETERS  (ANGSTROM AND DEGREES)
       A          B          C         ALPHA     BETA     GAMMA        VOLUME
    7.13650    7.13650    7.13650    90.00000  90.00000  90.00000    363.458881


 **** ATOMS BELONGING TO THE SUPERCELL
 LABEL AT.NO.      COORDINATES (ANGSTROM AND FRACTIONAL)
     1     6     0.8921     0.8921     0.8921     0.1250     0.1250     0.1250
     2     6     2.6762     2.6762     0.8921     0.3750     0.3750     0.1250
     3     6    -2.6762    -2.6762     0.8921    -0.3750    -0.3750     0.1250
     4     6    -0.8921    -0.8921     0.8921    -0.1250    -0.1250     0.1250
     5     6     2.6762     0.8921     2.6762     0.3750     0.1250     0.3750
     6     6    -2.6762     2.6762     2.6762    -0.3750     0.3750     0.3750
     7     6    -0.8921    -2.6762     2.6762    -0.1250    -0.3750     0.3750
     8     6     0.8921    -0.8921     2.6762     0.1250    -0.1250     0.3750
     9     6    -2.6762     0.8921    -2.6762    -0.3750     0.1250    -0.3750
    10     6    -0.8921     2.6762    -2.6762    -0.1250     0.3750    -0.3750
    11     6     0.8921    -2.6762    -2.6762     0.1250    -0.3750    -0.3750
    12     6     2.6762    -0.8921    -2.6762     0.3750    -0.1250    -0.3750
    13     6    -0.8921     0.8921    -0.8921    -0.1250     0.1250    -0.1250
    14     6     0.8921     2.6762    -0.8921     0.1250     0.3750    -0.1250
    15     6     2.6762    -2.6762    -0.8921     0.3750    -0.3750    -0.1250
    16     6    -2.6762    -0.8921    -0.8921    -0.3750    -0.1250    -0.1250
    17     6     0.8921     2.6762     2.6762     0.1250     0.3750     0.3750
    18     6     2.6762    -2.6762     2.6762     0.3750    -0.3750     0.3750
    19     6    -2.6762    -0.8921     2.6762    -0.3750    -0.1250     0.3750
    20     6    -0.8921     0.8921     2.6762    -0.1250     0.1250     0.3750
    21     6     2.6762     2.6762    -2.6762     0.3750     0.3750    -0.3750
    22     6    -2.6762    -2.6762    -2.6762    -0.3750    -0.3750    -0.3750
    23     6    -0.8921    -0.8921    -2.6762    -0.1250    -0.1250    -0.3750
    24     6     0.8921     0.8921    -2.6762     0.1250     0.1250    -0.3750
    25     6    -2.6762     2.6762    -0.8921    -0.3750     0.3750    -0.1250
    26     6    -0.8921    -2.6762    -0.8921    -0.1250    -0.3750    -0.1250
    27     6     0.8921    -0.8921    -0.8921     0.1250    -0.1250    -0.1250
    28     6     2.6762     0.8921    -0.8921     0.3750     0.1250    -0.1250
    29     6    -0.8921     2.6762     0.8921    -0.1250     0.3750     0.1250
    30     6     0.8921    -2.6762     0.8921     0.1250    -0.3750     0.1250
    31     6     2.6762    -0.8921     0.8921     0.3750    -0.1250     0.1250
    32     6    -2.6762     0.8921     0.8921    -0.3750     0.1250     0.1250
    33     6     0.0000     0.0000     0.0000     0.0000     0.0000     0.0000
    34     6     1.7841     1.7841     0.0000     0.2500     0.2500     0.0000
    35     6     3.5682     3.5682     0.0000     0.5000     0.5000     0.0000
    36     6    -1.7841    -1.7841     0.0000    -0.2500    -0.2500     0.0000
    37     6     1.7841     0.0000     1.7841     0.2500     0.0000     0.2500
    38     6     3.5682     1.7841     1.7841     0.5000     0.2500     0.2500
    39     6    -1.7841     3.5682     1.7841    -0.2500     0.5000     0.2500
    40     6     0.0000    -1.7841     1.7841     0.0000    -0.2500     0.2500
    41     6     3.5682     0.0000     3.5682     0.5000     0.0000     0.5000
    42     6    -1.7841     1.7841     3.5682    -0.2500     0.2500     0.5000
    43     6     0.0000     3.5682     3.5682     0.0000     0.5000     0.5000
    44     6     1.7841    -1.7841     3.5682     0.2500    -0.2500     0.5000
    45     6    -1.7841     0.0000    -1.7841    -0.2500     0.0000    -0.2500
    46     6     0.0000     1.7841    -1.7841     0.0000     0.2500    -0.2500
    47     6     1.7841     3.5682    -1.7841     0.2500     0.5000    -0.2500
    48     6    -3.5682    -1.7841    -1.7841    -0.5000    -0.2500    -0.2500
    49     6     0.0000     1.7841     1.7841     0.0000     0.2500     0.2500
    50     6     1.7841     3.5682     1.7841     0.2500     0.5000     0.2500
    51     6     3.5682    -1.7841     1.7841     0.5000    -0.2500     0.2500
    52     6    -1.7841     0.0000     1.7841    -0.2500     0.0000     0.2500
    53     6     1.7841     1.7841     3.5682     0.2500     0.2500     0.5000
    54     6     3.5682     3.5682     3.5682     0.5000     0.5000     0.5000
    55     6    -1.7841    -1.7841     3.5682    -0.2500    -0.2500     0.5000
    56     6     0.0000     0.0000     3.5682     0.0000     0.0000     0.5000
    57     6     3.5682     1.7841    -1.7841     0.5000     0.2500    -0.2500
    58     6    -1.7841     3.5682    -1.7841    -0.2500     0.5000    -0.2500
    59     6     0.0000    -1.7841    -1.7841     0.0000    -0.2500    -0.2500
    60     6     1.7841     0.0000    -1.7841     0.2500     0.0000    -0.2500
    61     6    -1.7841     1.7841     0.0000    -0.2500     0.2500     0.0000
    62     6     0.0000     3.5682     0.0000     0.0000     0.5000     0.0000
    63     6     1.7841    -1.7841     0.0000     0.2500    -0.2500     0.0000
    64     6    -3.5682     0.0000     0.0000    -0.5000     0.0000     0.0000

 **************************** SUPERCELL GENERATED ****************************

 **** ATOMS IN THE SUPERCELL REORDERED FOR PHONON CALCULATION
      ATOMS IN THE SMALL CELL ON TOP

 LABEL AT.NO.      COORDINATES (ANGSTROM)
     1     6     0.8921     0.8921     0.8921
     2     6     0.0000     0.0000     0.0000
     3     6    -2.6762    -2.6762     0.8921
     4     6    -0.8921    -0.8921     0.8921
     5     6     2.6762     0.8921     2.6762
     6     6    -2.6762     2.6762     2.6762
     7     6    -0.8921    -2.6762     2.6762
     8     6     0.8921    -0.8921     2.6762
     9     6    -2.6762     0.8921    -2.6762
    10     6    -0.8921     2.6762    -2.6762
    11     6     0.8921    -2.6762    -2.6762
    12     6     2.6762    -0.8921    -2.6762
    13     6    -0.8921     0.8921    -0.8921
    14     6     0.8921     2.6762    -0.8921
    15     6     2.6762    -2.6762    -0.8921
    16     6    -2.6762    -0.8921    -0.8921
    17     6     0.8921     2.6762     2.6762
    18     6     2.6762    -2.6762     2.6762
    19     6    -2.6762    -0.8921     2.6762
    20     6    -0.8921     0.8921     2.6762
    21     6     2.6762     2.6762    -2.6762
    22     6    -2.6762    -2.6762    -2.6762
    23     6    -0.8921    -0.8921    -2.6762
    24     6     0.8921     0.8921    -2.6762
    25     6    -2.6762     2.6762    -0.8921
    26     6    -0.8921    -2.6762    -0.8921
    27     6     0.8921    -0.8921    -0.8921
    28     6     2.6762     0.8921    -0.8921
    29     6    -0.8921     2.6762     0.8921
    30     6     0.8921    -2.6762     0.8921
    31     6     2.6762    -0.8921     0.8921
    32     6    -2.6762     0.8921     0.8921
    33     6     2.6762     2.6762     0.8921
    34     6     1.7841     1.7841     0.0000
    35     6     3.5682     3.5682     0.0000
    36     6    -1.7841    -1.7841     0.0000
    37     6     1.7841     0.0000     1.7841
    38     6     3.5682     1.7841     1.7841
    39     6    -1.7841     3.5682     1.7841
    40     6     0.0000    -1.7841     1.7841
    41     6     3.5682     0.0000     3.5682
    42     6    -1.7841     1.7841     3.5682
    43     6     0.0000     3.5682     3.5682
    44     6     1.7841    -1.7841     3.5682
    45     6    -1.7841     0.0000    -1.7841
    46     6     0.0000     1.7841    -1.7841
    47     6     1.7841     3.5682    -1.7841
    48     6    -3.5682    -1.7841    -1.7841
    49     6     0.0000     1.7841     1.7841
    50     6     1.7841     3.5682     1.7841
    51     6     3.5682    -1.7841     1.7841
    52     6    -1.7841     0.0000     1.7841
    53     6     1.7841     1.7841     3.5682
    54     6     3.5682     3.5682     3.5682
    55     6    -1.7841    -1.7841     3.5682
    56     6     0.0000     0.0000     3.5682
    57     6     3.5682     1.7841    -1.7841
    58     6    -1.7841     3.5682    -1.7841
    59     6     0.0000    -1.7841    -1.7841
    60     6     1.7841     0.0000    -1.7841
    61     6    -1.7841     1.7841     0.0000
    62     6     0.0000     3.5682     0.0000
    63     6     1.7841    -1.7841     0.0000
    64     6    -3.5682     0.0000     0.0000

 FRQFRQFRQFRQFRQFRQFRQFRQFRQFRQFRQFRQFRQFRQFRQFRQFRQFRQFRQFRQFRQFRQFRQFRQFRQFRQ

                       FREQUENCY CALCULATION

 INFORMATION **** INPFREQ **** PHONON DISPERSION CALCULATION
 INFORMATION **** INPFREQ **** FREQUENCY CALCULATION RESTART(DATA FROM FREQINFO.DAT)
 INFORMATION **** INPFREQ **** BANDS: MODES PRINTING DISABLED. USE KEYWORD MODES TO ENABLE.
 INFORMATION **** INPFREQ **** NEW DEFAULT - IMPOSING ECKART CONDITIONS TO THE HESSIAN

 GCALCO - MAX INDICES DIRECT LATTICE VECTOR    14    14    14
 NO.OF VECTORS CREATED 6999 STARS  120 RMAX   160.13768 BOHR

 GEOMETRY FOR WAVE FUNCTION - DIMENSIONALITY OF THE SYSTEM    3
 (NON PERIODIC DIRECTION: LATTICE PARAMETER FORMALLY SET TO 500)
 *******************************************************************************
 LATTICE PARAMETERS (ANGSTROMS AND DEGREES) - BOHR = 0.5291772083 ANGSTROM
 PRIMITIVE CELL - CENTRING CODE 1/1 VOLUME=   363.458881 - DENSITY  3.509 g/cm^3
         A              B              C           ALPHA      BETA       GAMMA 
     7.13649712     7.13649712     7.13649712    90.000000  90.000000  90.000000
 *******************************************************************************
 ATOMS IN THE ASYMMETRIC UNIT   10 - ATOMS IN THE UNIT CELL:   64
     ATOM                 X/A                 Y/B                 Z/C    
 *******************************************************************************
      1 T   6 C     1.250000000000E-01  1.250000000000E-01  1.250000000000E-01
      2 T   6 C     0.000000000000E+00  0.000000000000E+00  0.000000000000E+00
      3 T   6 C    -3.750000000000E-01 -3.750000000000E-01  1.250000000000E-01
      4 F   6 C    -1.250000000000E-01 -1.250000000000E-01  1.250000000000E-01
      5 F   6 C     3.750000000000E-01  1.250000000000E-01  3.750000000000E-01
      6 T   6 C    -3.750000000000E-01  3.750000000000E-01  3.750000000000E-01
      7 F   6 C    -1.250000000000E-01 -3.750000000000E-01  3.750000000000E-01
      8 T   6 C     1.250000000000E-01 -1.250000000000E-01  3.750000000000E-01
      9 F   6 C    -3.750000000000E-01  1.250000000000E-01 -3.750000000000E-01
     10 F   6 C    -1.250000000000E-01  3.750000000000E-01 -3.750000000000E-01
     11 F   6 C     1.250000000000E-01 -3.750000000000E-01 -3.750000000000E-01
     12 F   6 C     3.750000000000E-01 -1.250000000000E-01 -3.750000000000E-01
     13 F   6 C    -1.250000000000E-01  1.250000000000E-01 -1.250000000000E-01
     14 F   6 C     1.250000000000E-01  3.750000000000E-01 -1.250000000000E-01
     15 F   6 C     3.750000000000E-01 -3.750000000000E-01 -1.250000000000E-01
     16 F   6 C    -3.750000000000E-01 -1.250000000000E-01 -1.250000000000E-01
     17 F   6 C     1.250000000000E-01  3.750000000000E-01  3.750000000000E-01
     18 F   6 C     3.750000000000E-01 -3.750000000000E-01  3.750000000000E-01
     19 F   6 C    -3.750000000000E-01 -1.250000000000E-01  3.750000000000E-01
     20 F   6 C    -1.250000000000E-01  1.250000000000E-01  3.750000000000E-01
     21 F   6 C     3.750000000000E-01  3.750000000000E-01 -3.750000000000E-01
     22 F   6 C    -3.750000000000E-01 -3.750000000000E-01 -3.750000000000E-01
     23 F   6 C    -1.250000000000E-01 -1.250000000000E-01 -3.750000000000E-01
     24 F   6 C     1.250000000000E-01  1.250000000000E-01 -3.750000000000E-01
     25 F   6 C    -3.750000000000E-01  3.750000000000E-01 -1.250000000000E-01
     26 F   6 C    -1.250000000000E-01 -3.750000000000E-01 -1.250000000000E-01
     27 F   6 C     1.250000000000E-01 -1.250000000000E-01 -1.250000000000E-01
     28 F   6 C     3.750000000000E-01  1.250000000000E-01 -1.250000000000E-01
     29 F   6 C    -1.250000000000E-01  3.750000000000E-01  1.250000000000E-01
     30 F   6 C     1.250000000000E-01 -3.750000000000E-01  1.250000000000E-01
     31 F   6 C     3.750000000000E-01 -1.250000000000E-01  1.250000000000E-01
     32 F   6 C    -3.750000000000E-01  1.250000000000E-01  1.250000000000E-01
     33 F   6 C     3.750000000000E-01  3.750000000000E-01  1.250000000000E-01
     34 T   6 C     2.500000000000E-01  2.500000000000E-01  0.000000000000E+00
     35 T   6 C     5.000000000000E-01 -5.000000000000E-01  0.000000000000E+00
     36 F   6 C    -2.500000000000E-01 -2.500000000000E-01  0.000000000000E+00
     37 F   6 C     2.500000000000E-01  0.000000000000E+00  2.500000000000E-01
     38 T   6 C     5.000000000000E-01  2.500000000000E-01  2.500000000000E-01
     39 F   6 C    -2.500000000000E-01 -5.000000000000E-01  2.500000000000E-01
     40 F   6 C     0.000000000000E+00 -2.500000000000E-01  2.500000000000E-01
     41 F   6 C     5.000000000000E-01  0.000000000000E+00 -5.000000000000E-01
     42 F   6 C    -2.500000000000E-01  2.500000000000E-01 -5.000000000000E-01
     43 F   6 C     0.000000000000E+00 -5.000000000000E-01 -5.000000000000E-01
     44 F   6 C     2.500000000000E-01 -2.500000000000E-01 -5.000000000000E-01
     45 F   6 C    -2.500000000000E-01  0.000000000000E+00 -2.500000000000E-01
     46 F   6 C     0.000000000000E+00  2.500000000000E-01 -2.500000000000E-01
     47 F   6 C     2.500000000000E-01 -5.000000000000E-01 -2.500000000000E-01
     48 F   6 C     5.000000000000E-01 -2.500000000000E-01 -2.500000000000E-01
     49 F   6 C     0.000000000000E+00  2.500000000000E-01  2.500000000000E-01
     50 F   6 C     2.500000000000E-01 -5.000000000000E-01  2.500000000000E-01
     51 F   6 C     5.000000000000E-01 -2.500000000000E-01  2.500000000000E-01
     52 F   6 C    -2.500000000000E-01  0.000000000000E+00  2.500000000000E-01
     53 F   6 C     2.500000000000E-01  2.500000000000E-01 -5.000000000000E-01
     54 T   6 C     5.000000000000E-01 -5.000000000000E-01 -5.000000000000E-01
     55 F   6 C    -2.500000000000E-01 -2.500000000000E-01 -5.000000000000E-01
     56 T   6 C     0.000000000000E+00  0.000000000000E+00 -5.000000000000E-01
     57 F   6 C     5.000000000000E-01  2.500000000000E-01 -2.500000000000E-01
     58 F   6 C    -2.500000000000E-01 -5.000000000000E-01 -2.500000000000E-01
     59 F   6 C     0.000000000000E+00 -2.500000000000E-01 -2.500000000000E-01
     60 F   6 C     2.500000000000E-01  0.000000000000E+00 -2.500000000000E-01
     61 F   6 C    -2.500000000000E-01  2.500000000000E-01  0.000000000000E+00
     62 F   6 C     0.000000000000E+00 -5.000000000000E-01  0.000000000000E+00
     63 F   6 C     2.500000000000E-01 -2.500000000000E-01  0.000000000000E+00
     64 F   6 C     5.000000000000E-01  0.000000000000E+00  0.000000000000E+00

 T = ATOM BELONGING TO THE ASYMMETRIC UNIT

 ****   24 SYMMOPS - TRANSLATORS IN FRACTIONAL UNITS
 **** MATRICES AND TRANSLATORS IN THE CRYSTALLOGRAPHIC REFERENCE FRAME
   V INV                    ROTATION MATRICES                   TRANSLATORS
   1   1  1.00  0.00  0.00  0.00  1.00  0.00  0.00  0.00  1.00  0.00  0.00  0.00
   2   2 -1.00  0.00  0.00  0.00 -1.00  0.00  0.00  0.00  1.00  0.00  0.00  0.00
   3   3  1.00  0.00  0.00  0.00 -1.00  0.00  0.00  0.00 -1.00  0.00  0.00  0.00
   4   4 -1.00  0.00  0.00  0.00  1.00  0.00  0.00  0.00 -1.00  0.00  0.00  0.00
   5   6  0.00  0.00  1.00  1.00  0.00  0.00  0.00  1.00  0.00  0.00  0.00  0.00
   6   5  0.00  1.00  0.00  0.00  0.00  1.00  1.00  0.00  0.00  0.00  0.00  0.00
   7   8  0.00  0.00 -1.00 -1.00  0.00  0.00  0.00  1.00  0.00  0.00  0.00  0.00
   8   7  0.00 -1.00  0.00  0.00  0.00  1.00 -1.00  0.00  0.00  0.00  0.00  0.00
   9  10  0.00  0.00  1.00 -1.00  0.00  0.00  0.00 -1.00  0.00  0.00  0.00  0.00
  10   9  0.00 -1.00  0.00  0.00  0.00 -1.00  1.00  0.00  0.00  0.00  0.00  0.00
  11  12  0.00  0.00 -1.00  1.00  0.00  0.00  0.00 -1.00  0.00  0.00  0.00  0.00
  12  11  0.00  1.00  0.00  0.00  0.00 -1.00 -1.00  0.00  0.00  0.00  0.00  0.00
  13  13  0.00  1.00  0.00  1.00  0.00  0.00  0.00  0.00  1.00  0.00  0.00  0.00
  14  14  0.00 -1.00  0.00 -1.00  0.00  0.00  0.00  0.00  1.00  0.00  0.00  0.00
  15  16  0.00 -1.00  0.00  1.00  0.00  0.00  0.00  0.00 -1.00  0.00  0.00  0.00
  16  15  0.00  1.00  0.00 -1.00  0.00  0.00  0.00  0.00 -1.00  0.00  0.00  0.00
  17  17  1.00  0.00  0.00  0.00  0.00  1.00  0.00  1.00  0.00  0.00  0.00  0.00
  18  18  0.00  0.00  1.00  0.00  1.00  0.00  1.00  0.00  0.00  0.00  0.00  0.00
  19  21 -1.00  0.00  0.00  0.00  0.00 -1.00  0.00  1.00  0.00  0.00  0.00  0.00
  20  22  0.00  0.00  1.00  0.00 -1.00  0.00 -1.00  0.00  0.00  0.00  0.00  0.00
  21  19 -1.00  0.00  0.00  0.00  0.00  1.00  0.00 -1.00  0.00  0.00  0.00  0.00
  22  20  0.00  0.00 -1.00  0.00 -1.00  0.00  1.00  0.00  0.00  0.00  0.00  0.00
  23  23  1.00  0.00  0.00  0.00  0.00 -1.00  0.00 -1.00  0.00  0.00  0.00  0.00
  24  24  0.00  0.00 -1.00  0.00  1.00  0.00 -1.00  0.00  0.00  0.00  0.00  0.00

 DIRECT LATTICE VECTORS CARTESIAN COMPONENTS (ANGSTROM)
          X                    Y                    Z
   0.713649712000E+01   0.000000000000E+00   0.000000000000E+00
   0.000000000000E+00   0.713649712000E+01   0.000000000000E+00
   0.000000000000E+00   0.000000000000E+00   0.713649712000E+01


 CARTESIAN COORDINATES - PRIMITIVE CELL
 *******************************************************************************
 *      ATOM          X(ANGSTROM)         Y(ANGSTROM)         Z(ANGSTROM)
 *******************************************************************************
    1     6 C     8.920621400000E-01  8.920621400000E-01  8.920621400000E-01
    2     6 C     0.000000000000E+00  0.000000000000E+00  0.000000000000E+00
    3     6 C    -2.676186420000E+00 -2.676186420000E+00  8.920621400000E-01
    4     6 C    -8.920621400000E-01 -8.920621400000E-01  8.920621400000E-01
    5     6 C     2.676186420000E+00  8.920621400000E-01  2.676186420000E+00
    6     6 C    -2.676186420000E+00  2.676186420000E+00  2.676186420000E+00
    7     6 C    -8.920621400000E-01 -2.676186420000E+00  2.676186420000E+00
    8     6 C     8.920621400000E-01 -8.920621400000E-01  2.676186420000E+00
    9     6 C    -2.676186420000E+00  8.920621400000E-01 -2.676186420000E+00
   10     6 C    -8.920621400000E-01  2.676186420000E+00 -2.676186420000E+00
   11     6 C     8.920621400000E-01 -2.676186420000E+00 -2.676186420000E+00
   12     6 C     2.676186420000E+00 -8.920621400000E-01 -2.676186420000E+00
   13     6 C    -8.920621400000E-01  8.920621400000E-01 -8.920621400000E-01
   14     6 C     8.920621400000E-01  2.676186420000E+00 -8.920621400000E-01
   15     6 C     2.676186420000E+00 -2.676186420000E+00 -8.920621400000E-01
   16     6 C    -2.676186420000E+00 -8.920621400000E-01 -8.920621400000E-01
   17     6 C     8.920621400000E-01  2.676186420000E+00  2.676186420000E+00
   18     6 C     2.676186420000E+00 -2.676186420000E+00  2.676186420000E+00
   19     6 C    -2.676186420000E+00 -8.920621400000E-01  2.676186420000E+00
   20     6 C    -8.920621400000E-01  8.920621400000E-01  2.676186420000E+00
   21     6 C     2.676186420000E+00  2.676186420000E+00 -2.676186420000E+00
   22     6 C    -2.676186420000E+00 -2.676186420000E+00 -2.676186420000E+00
   23     6 C    -8.920621400000E-01 -8.920621400000E-01 -2.676186420000E+00
   24     6 C     8.920621400000E-01  8.920621400000E-01 -2.676186420000E+00
   25     6 C    -2.676186420000E+00  2.676186420000E+00 -8.920621400000E-01
   26     6 C    -8.920621400000E-01 -2.676186420000E+00 -8.920621400000E-01
   27     6 C     8.920621400000E-01 -8.920621400000E-01 -8.920621400000E-01
   28     6 C     2.676186420000E+00  8.920621400000E-01 -8.920621400000E-01
   29     6 C    -8.920621400000E-01  2.676186420000E+00  8.920621400000E-01
   30     6 C     8.920621400000E-01 -2.676186420000E+00  8.920621400000E-01
   31     6 C     2.676186420000E+00 -8.920621400000E-01  8.920621400000E-01
   32     6 C    -2.676186420000E+00  8.920621400000E-01  8.920621400000E-01
   33     6 C     2.676186420000E+00  2.676186420000E+00  8.920621400000E-01
   34     6 C     1.784124280000E+00  1.784124280000E+00  0.000000000000E+00
   35     6 C     3.568248560000E+00  3.568248560000E+00  0.000000000000E+00
   36     6 C    -1.784124280000E+00 -1.784124280000E+00  0.000000000000E+00
   37     6 C     1.784124280000E+00  0.000000000000E+00  1.784124280000E+00
   38     6 C     3.568248560000E+00  1.784124280000E+00  1.784124280000E+00
   39     6 C    -1.784124280000E+00  3.568248560000E+00  1.784124280000E+00
   40     6 C     0.000000000000E+00 -1.784124280000E+00  1.784124280000E+00
   41     6 C     3.568248560000E+00  0.000000000000E+00  3.568248560000E+00
   42     6 C    -1.784124280000E+00  1.784124280000E+00  3.568248560000E+00
   43     6 C     0.000000000000E+00  3.568248560000E+00  3.568248560000E+00
   44     6 C     1.784124280000E+00 -1.784124280000E+00  3.568248560000E+00
   45     6 C    -1.784124280000E+00  0.000000000000E+00 -1.784124280000E+00
   46     6 C     0.000000000000E+00  1.784124280000E+00 -1.784124280000E+00
   47     6 C     1.784124280000E+00  3.568248560000E+00 -1.784124280000E+00
   48     6 C     3.568248560000E+00 -1.784124280000E+00 -1.784124280000E+00
   49     6 C     0.000000000000E+00  1.784124280000E+00  1.784124280000E+00
   50     6 C     1.784124280000E+00  3.568248560000E+00  1.784124280000E+00
   51     6 C     3.568248560000E+00 -1.784124280000E+00  1.784124280000E+00
   52     6 C    -1.784124280000E+00  0.000000000000E+00  1.784124280000E+00
   53     6 C     1.784124280000E+00  1.784124280000E+00  3.568248560000E+00
   54     6 C     3.568248560000E+00  3.568248560000E+00  3.568248560000E+00
   55     6 C    -1.784124280000E+00 -1.784124280000E+00  3.568248560000E+00
   56     6 C     0.000000000000E+00  0.000000000000E+00  3.568248560000E+00
   57     6 C     3.568248560000E+00  1.784124280000E+00 -1.784124280000E+00
   58     6 C    -1.784124280000E+00  3.568248560000E+00 -1.784124280000E+00
   59     6 C     0.000000000000E+00 -1.784124280000E+00 -1.784124280000E+00
   60     6 C     1.784124280000E+00  0.000000000000E+00 -1.784124280000E+00
   61     6 C    -1.784124280000E+00  1.784124280000E+00  0.000000000000E+00
   62     6 C     0.000000000000E+00  3.568248560000E+00  0.000000000000E+00
   63     6 C     1.784124280000E+00 -1.784124280000E+00  0.000000000000E+00
   64     6 C     3.568248560000E+00  0.000000000000E+00  0.000000000000E+00

 *******************************************************************************
 LOCAL ATOMIC FUNCTIONS BASIS SET
 *******************************************************************************
   ATOM   X(AU)   Y(AU)   Z(AU)  N. TYPE  EXPONENT  S COEF   P COEF   D/F/G COEF
 *******************************************************************************
   1 C    1.686   1.686   1.686
                                  1 S  
                                         1.358E+04 2.225E-04 0.000E+00 0.000E+00
                                         2.035E+03 1.723E-03 0.000E+00 0.000E+00
                                         4.632E+02 8.926E-03 0.000E+00 0.000E+00
                                         1.312E+02 3.573E-02 0.000E+00 0.000E+00
                                         4.285E+01 1.108E-01 0.000E+00 0.000E+00
                                         1.558E+01 2.430E-01 0.000E+00 0.000E+00
                                  2 S  
                                         6.207E+00 4.144E-01 0.000E+00 0.000E+00
                                         2.576E+00 2.374E-01 0.000E+00 0.000E+00
                                  3 S  
                                         4.941E-01 1.000E+00 0.000E+00 0.000E+00
                                  4 S  
                                         1.644E-01 1.000E+00 0.000E+00 0.000E+00
                           5-     7 P  
                                         3.470E+01 0.000E+00 5.333E-03 0.000E+00
                                         7.958E+00 0.000E+00 3.586E-02 0.000E+00
                                         2.378E+00 0.000E+00 1.422E-01 0.000E+00
                                         8.143E-01 0.000E+00 3.427E-01 0.000E+00
                           8-    10 P  
                                         5.662E-01 0.000E+00 1.000E+00 0.000E+00
                          11-    13 P  
                                         2.674E-01 0.000E+00 1.000E+00 0.000E+00
                          14-    18 D  
                                         8.792E-01 0.000E+00 0.000E+00 1.000E+00
   2 C    0.000   0.000   0.000
   3 C   -5.057  -5.057   1.686
   4 C   -1.686  -1.686   1.686
   5 C    5.057   1.686   5.057
   6 C   -5.057   5.057   5.057
   7 C   -1.686  -5.057   5.057
   8 C    1.686  -1.686   5.057
   9 C   -5.057   1.686  -5.057
  10 C   -1.686   5.057  -5.057
  11 C    1.686  -5.057  -5.057
  12 C    5.057  -1.686  -5.057
  13 C   -1.686   1.686  -1.686
  14 C    1.686   5.057  -1.686
  15 C    5.057  -5.057  -1.686
  16 C   -5.057  -1.686  -1.686
  17 C    1.686   5.057   5.057
  18 C    5.057  -5.057   5.057
  19 C   -5.057  -1.686   5.057
  20 C   -1.686   1.686   5.057
  21 C    5.057   5.057  -5.057
  22 C   -5.057  -5.057  -5.057
  23 C   -1.686  -1.686  -5.057
  24 C    1.686   1.686  -5.057
  25 C   -5.057   5.057  -1.686
  26 C   -1.686  -5.057  -1.686
  27 C    1.686  -1.686  -1.686
  28 C    5.057   1.686  -1.686
  29 C   -1.686   5.057   1.686
  30 C    1.686  -5.057   1.686
  31 C    5.057  -1.686   1.686
  32 C   -5.057   1.686   1.686
  33 C    5.057   5.057   1.686
  34 C    3.372   3.372   0.000
  35 C    6.743   6.743   0.000
  36 C   -3.372  -3.372   0.000
  37 C    3.372   0.000   3.372
  38 C    6.743   3.372   3.372
  39 C   -3.372   6.743   3.372
  40 C    0.000  -3.372   3.372
  41 C    6.743   0.000   6.743
  42 C   -3.372   3.372   6.743
  43 C    0.000   6.743   6.743
  44 C    3.372  -3.372   6.743
  45 C   -3.372   0.000  -3.372
  46 C    0.000   3.372  -3.372
  47 C    3.372   6.743  -3.372
  48 C    6.743  -3.372  -3.372
  49 C    0.000   3.372   3.372
  50 C    3.372   6.743   3.372
  51 C    6.743  -3.372   3.372
  52 C   -3.372   0.000   3.372
  53 C    3.372   3.372   6.743
  54 C    6.743   6.743   6.743
  55 C   -3.372  -3.372   6.743
  56 C    0.000   0.000   6.743
  57 C    6.743   3.372  -3.372
  58 C   -3.372   6.743  -3.372
  59 C    0.000  -3.372  -3.372
  60 C    3.372   0.000  -3.372
  61 C   -3.372   3.372   0.000
  62 C    0.000   6.743   0.000
  63 C    3.372  -3.372   0.000
  64 C    6.743   0.000   0.000
 INFORMATION **** SET_MPP **** PCRYSTAL CALCULATION
 INFORMATION **** READM2 **** NEW DEFAULT: FOCK/KS MATRIX MIXING SET TO 30 %
 INFORMATION **** READM2 **** NEW DEFAULT: FULL DIRECT SCF MODE
 INFORMATION **** READM2 **** NEW DEFAULT: COULOMB BIPOLAR BUFFER SET TO 32 Mb
 INFORMATION **** READM2 **** NEW DEFAULT: EXCHANGE BIPOLAR BUFFER SET TO 32 Mb

 *******************************************************************************
 NEW DEFAULT: DFT INTEGRATION GRID INCREASED TO XLGRID
 NEW DEFAULT: DIIS ACCELERATOR ACTIVE
 USE KEYWORD NODIIS TO TURN IT OFF
 *******************************************************************************

 INFORMATION **** TOLDEE **** SCF TOL ON TOTAL ENERGY SET TO          10
 *******************************************************************************
 N. OF ATOMS PER CELL        64  COULOMB OVERLAP TOL         (T1) 10**   -6
 NUMBER OF SHELLS           512  COULOMB PENETRATION TOL     (T2) 10**   -6
 NUMBER OF AO              1152  EXCHANGE OVERLAP TOL        (T3) 10**   20
 N. OF ELECTRONS PER CELL   384  EXCHANGE PSEUDO OVP (F(G))  (T4) 10**   20
 CORE ELECTRONS PER CELL    128  EXCHANGE PSEUDO OVP (P(G))  (T5) 10**   20
 N. OF SYMMETRY OPERATORS    24  POLE ORDER IN MONO ZONE                  4
 *******************************************************************************
 TYPE OF CALCULATION :  RESTRICTED CLOSED SHELL
 KOHN-SHAM HAMILTONIAN

 (EXCHANGE)[CORRELATION] FUNCTIONAL:(PERDEW-BURKE-ERNZERHOF)[PERDEW-BURKE-ERNZERHOF]


 CAPPA:IS1  2;IS2  2;IS3  2; K PTS MONK NET   4; SYMMOPS:K SPACE  48;G SPACE  24

 *******************************************************************************
 MAX NUMBER OF SCF CYCLES      50  CONVERGENCE ON DELTAP        10**-20
 WEIGHT OF F(I) IN F(I+1)      30% CONVERGENCE ON ENERGY        10**-10
 SHRINK. FACT.(MONKH.)    2  2  2  NUMBER OF K POINTS IN THE IBZ      4
 SHRINKING FACTOR(GILAT NET)    2  NUMBER OF K POINTS(GILAT NET)      4
 *******************************************************************************
 *** K POINTS COORDINATES (OBLIQUE COORDINATES IN UNITS OF IS =  2)
   1-R(  0  0  0)   2-R(  1  0  0)   3-R(  1  1  0)   4-R(  1  1  1)

 DIRECT LATTICE VECTORS COMPON. (A.U.)     RECIP. LATTICE VECTORS COMPON. (A.U.) 
        X            Y            Z              X            Y            Z
   13.4860251    0.0000000    0.0000000      0.4659034    0.0000000    0.0000000
    0.0000000   13.4860251    0.0000000      0.0000000    0.4659034    0.0000000
    0.0000000    0.0000000   13.4860251      0.0000000    0.0000000    0.4659034

 DISK SPACE FOR EIGENVECTORS (FTN 10)     5308416 REALS

 SYMMETRY ADAPTION OF THE BLOCH FUNCTIONS ENABLED
 TTTTTTTTTTTTTTTTTTTTTTTTTTTTTT gordsh1     TELAPSE        0.20 TCPU        0.17

 MATRIX SIZE: P(G)  917504, F(G)  459328, P(G) IRR   27086, F(G) IRR   27086
 MAX G-VECTOR INDEX FOR 1- AND 2-ELECTRON INTEGRALS  27

 TTTTTTTTTTTTTTTTTTTTTTTTTTTTTT INPUT       TELAPSE        0.24 TCPU        0.20

 NEIGHBORS OF THE NON-EQUIVALENT ATOMS

 N = NUMBER OF NEIGHBORS AT DISTANCE R
    ATOM  N     R/ANG      R/AU   NEIGHBORS (ATOM LABELS AND CELL INDICES)
   1 C    4     1.5451     2.9198    2 C    0 0 0   34 C    0 0 0   37 C    0 0 0
                                    49 C    0 0 0
   1 C   12     2.5231     4.7680    4 C    0 0 0    5 C    0 0 0    8 C    0 0 0
                                    13 C    0 0 0   14 C    0 0 0   17 C    0 0 0
                                    20 C    0 0 0   27 C    0 0 0   28 C    0 0 0
                                    29 C    0 0 0   31 C    0 0 0   33 C    0 0 0
   1 C   12     2.9586     5.5910   38 C    0 0 0   40 C    0 0 0   46 C    0 0 0
                                    50 C    0 0 0   52 C    0 0 0   53 C    0 0 0
                                    56 C    0 0 0   60 C    0 0 0   61 C    0 0 0
                                    62 C    0 0 0   63 C    0 0 0   64 C    0 0 0
   1 C    6     3.5682     6.7430   24 C    0 0 0   24 C    0 0 1   30 C    0 0 0
                                    30 C    0 1 0   32 C    0 0 0   32 C    1 0 0
   1 C   12     3.8884     7.3480   35 C    0 0 0   36 C    0 0 0   39 C    0 0 0
                                    41 C    0 0 0   42 C    0 0 0   43 C    0 0 0
                                    44 C    0 0 0   45 C    0 0 0   47 C    0 0 0
                                    51 C    0 0 0   57 C    0 0 0   59 C    0 0 0
   1 C   24     4.3702     8.2585    6 C    0 0 0    6 C    1 0 0    7 C    0 0 0
                                     7 C    0 1 0   10 C    0 0 0   10 C    0 0 1
                                    12 C    0 0 0   12 C    0 0 1   15 C    0 0 0
                                    15 C    0 1 0   16 C    0 0 0   16 C    1 0 0
                                    18 C    0 0 0   18 C    0 1 0   19 C    0 0 0
                                    19 C    1 0 0   21 C    0 0 0   21 C    0 0 1
                                    23 C    0 0 0   23 C    0 0 1   25 C    0 0 0
                                    25 C    1 0 0   26 C    0 0 0   26 C    0 1 0

   2 C    4     1.5451     2.9198    1 C    0 0 0    4 C    0 0 0   13 C    0 0 0
                                    27 C    0 0 0
   2 C   12     2.5231     4.7680   34 C    0 0 0   36 C    0 0 0   37 C    0 0 0
                                    40 C    0 0 0   45 C    0 0 0   46 C    0 0 0
                                    49 C    0 0 0   52 C    0 0 0   59 C    0 0 0
                                    60 C    0 0 0   61 C    0 0 0   63 C    0 0 0
   2 C   12     2.9586     5.5910    8 C    0 0 0   14 C    0 0 0   16 C    0 0 0
                                    20 C    0 0 0   23 C    0 0 0   24 C    0 0 0
                                    26 C    0 0 0   28 C    0 0 0   29 C    0 0 0
                                    30 C    0 0 0   31 C    0 0 0   32 C    0 0 0
   2 C    6     3.5682     6.7430   56 C    0 0 0   56 C    0 0-1   62 C    0 0 0
                                    62 C    0-1 0   64 C    0 0 0   64 C   -1 0 0
   2 C   12     3.8884     7.3480    3 C    0 0 0    5 C    0 0 0    7 C    0 0 0
                                     9 C    0 0 0   10 C    0 0 0   11 C    0 0 0
                                    12 C    0 0 0   15 C    0 0 0   17 C    0 0 0
                                    19 C    0 0 0   25 C    0 0 0   33 C    0 0 0
   2 C   24     4.3702     8.2585   38 C    0 0 0   38 C   -1 0 0   39 C    0-1 0
                                    39 C    0 0 0   42 C    0 0-1   42 C    0 0 0
                                    44 C    0 0-1   44 C    0 0 0   47 C    0-1 0
                                    47 C    0 0 0   48 C    0 0 0   48 C   -1 0 0
                                    50 C    0 0 0   50 C    0-1 0   51 C   -1 0 0
                                    51 C    0 0 0   53 C    0 0 0   53 C    0 0-1
                                    55 C    0 0 0   55 C    0 0-1   57 C   -1 0 0
                                    57 C    0 0 0   58 C    0 0 0   58 C    0-1 0

   3 C    4     1.5451     2.9198   35 C   -1-1 0   36 C    0 0 0   39 C    0-1 0
                                    51 C   -1 0 0
   3 C   12     2.5231     4.7680    4 C    0 0 0    6 C    0-1 0    7 C    0 0 0
                                    15 C   -1 0 0   16 C    0 0 0   18 C   -1 0 0
                                    19 C    0 0 0   25 C    0-1 0   26 C    0 0 0
                                    29 C    0-1 0   31 C   -1 0 0   33 C   -1-1 0
   3 C   12     2.9586     5.5910   38 C   -1-1 0   40 C    0 0 0   48 C   -1 0 0
                                    50 C   -1-1 0   52 C    0 0 0   54 C   -1-1 0
                                    55 C    0 0 0   58 C    0-1 0   61 C    0-1 0
                                    62 C    0-1 0   63 C   -1 0 0   64 C   -1 0 0
   3 C    6     3.5682     6.7430   22 C    0 0 0   22 C    0 0 1   30 C    0 0 0
                                    30 C   -1 0 0   32 C    0 0 0   32 C    0-1 0
   3 C   12     3.8884     7.3480    2 C    0 0 0   34 C   -1-1 0   37 C   -1 0 0
                                    41 C   -1 0 0   42 C    0-1 0   43 C    0-1 0
                                    44 C   -1 0 0   45 C    0 0 0   47 C   -1-1 0
                                    49 C    0-1 0   57 C   -1-1 0   59 C    0 0 0
   3 C   24     4.3702     8.2585    5 C   -1 0 0    5 C   -1-1 0    8 C    0 0 0
                                     8 C   -1 0 0   10 C    0-1 0   10 C    0-1 1
                                    12 C   -1 0 0   12 C   -1 0 1   13 C    0 0 0
                                    13 C    0-1 0   14 C    0-1 0   14 C   -1-1 0
                                    17 C    0-1 0   17 C   -1-1 0   20 C    0 0 0
                                    20 C    0-1 0   21 C   -1-1 0   21 C   -1-1 1
                                    23 C    0 0 0   23 C    0 0 1   27 C    0 0 0
                                    27 C   -1 0 0   28 C   -1 0 0   28 C   -1-1 0

   6 C    4     1.5451     2.9198   38 C   -1 0 0   39 C    0 0 0   42 C    0 0 0
                                    54 C   -1 0 0
   6 C   12     2.5231     4.7680    3 C    0 1 0    5 C   -1 0 0    7 C    0 1 0
                                     9 C    0 0 1   10 C    0 0 1   18 C   -1 1 0
                                    20 C    0 0 0   21 C   -1 0 1   22 C    0 1 1
                                    29 C    0 0 0   32 C    0 0 0   33 C   -1 0 0
   6 C   12     2.9586     5.5910   35 C   -1 0 0   41 C   -1 0 0   43 C    0 0 0
                                    49 C    0 0 0   50 C   -1 0 0   51 C   -1 1 0
                                    52 C    0 0 0   53 C   -1 0 0   55 C    0 1 0
                                    57 C   -1 0 1   58 C    0 0 1   61 C    0 0 0
   6 C    6     3.5682     6.7430   17 C    0 0 0   17 C   -1 0 0   19 C    0 0 0
                                    19 C    0 1 0   25 C    0 0 0   25 C    0 0 1
   6 C   12     3.8884     7.3480   34 C   -1 0 0   36 C    0 1 0   37 C   -1 0 0
                                    40 C    0 1 0   44 C   -1 1 0   45 C    0 0 1
                                    46 C    0 0 1   47 C   -1 0 1   48 C   -1 1 1
                                    56 C    0 0 0   62 C    0 0 0   64 C   -1 0 0
   6 C   24     4.3702     8.2585    1 C    0 0 0    1 C   -1 0 0    4 C    0 0 0
                                     4 C    0 1 0   11 C    0 1 1   11 C   -1 1 1
                                    12 C   -1 0 1   12 C   -1 1 1   13 C    0 0 0
                                    13 C    0 0 1   15 C   -1 1 0   15 C   -1 1 1
                                    23 C    0 0 1   23 C    0 1 1   24 C    0 0 1
                                    24 C   -1 0 1   26 C    0 1 0   26 C    0 1 1
                                    28 C   -1 0 0   28 C   -1 0 1   30 C    0 1 0
                                    30 C   -1 1 0   31 C   -1 0 0   31 C   -1 1 0

   8 C    4     1.5451     2.9198   37 C    0 0 0   40 C    0 0 0   44 C    0 0 0
                                    56 C    0 0 0
   8 C   12     2.5231     4.7680    1 C    0 0 0    4 C    0 0 0    5 C    0 0 0
                                     7 C    0 0 0   11 C    0 0 1   12 C    0 0 1
                                    18 C    0 0 0   20 C    0 0 0   23 C    0 0 1
                                    24 C    0 0 1   30 C    0 0 0   31 C    0 0 0
   8 C   12     2.9586     5.5910    2 C    0 0 0   41 C    0 0 0   43 C    0-1 0
                                    49 C    0 0 0   50 C    0-1 0   51 C    0 0 0
                                    52 C    0 0 0   53 C    0 0 0   55 C    0 0 0
                                    59 C    0 0 1   60 C    0 0 1   63 C    0 0 0
   8 C    6     3.5682     6.7430   17 C    0 0 0   17 C    0-1 0   19 C    0 0 0
                                    19 C    1 0 0   27 C    0 0 0   27 C    0 0 1
   8 C   12     3.8884     7.3480   34 C    0 0 0   36 C    0 0 0   38 C    0 0 0
                                    39 C    0-1 0   42 C    0 0 0   45 C    0 0 1
                                    46 C    0 0 1   47 C    0-1 1   48 C    0 0 1
                                    54 C    0-1 0   62 C    0-1 0   64 C    0 0 0
   8 C   24     4.3702     8.2585    3 C    0 0 0    3 C    1 0 0    9 C    0 0 1
                                     9 C    1 0 1   10 C    0 0 1   10 C    0-1 1
                                    13 C    0 0 0   13 C    0 0 1   15 C    0 0 0
                                    15 C    0 0 1   21 C    0 0 1   21 C    0-1 1
                                    22 C    0 0 1   22 C    1 0 1   26 C    0 0 0
                                    26 C    0 0 1   28 C    0 0 0   28 C    0 0 1
                                    29 C    0 0 0   29 C    0-1 0   32 C    0 0 0
                                    32 C    1 0 0   33 C    0 0 0   33 C    0-1 0

  34 C    4     1.5451     2.9198    1 C    0 0 0   14 C    0 0 0   28 C    0 0 0
                                    33 C    0 0 0
  34 C   12     2.5231     4.7680    2 C    0 0 0   35 C    0 0 0   37 C    0 0 0
                                    38 C    0 0 0   46 C    0 0 0   47 C    0 0 0
                                    49 C    0 0 0   50 C    0 0 0   57 C    0 0 0
                                    60 C    0 0 0   62 C    0 0 0   64 C    0 0 0
  34 C   12     2.9586     5.5910    5 C    0 0 0   13 C    0 0 0   15 C    0 1 0
                                    17 C    0 0 0   21 C    0 0 0   24 C    0 0 0
                                    25 C    1 0 0   27 C    0 0 0   29 C    0 0 0
                                    30 C    0 1 0   31 C    0 0 0   32 C    1 0 0
  34 C    6     3.5682     6.7430   53 C    0 0 0   53 C    0 0-1   61 C    0 0 0
                                    61 C    1 0 0   63 C    0 0 0   63 C    0 1 0
  34 C   12     3.8884     7.3480    3 C    1 1 0    4 C    0 0 0    6 C    1 0 0
                                     8 C    0 0 0    9 C    1 0 0   10 C    0 0 0
                                    11 C    0 1 0   12 C    0 0 0   16 C    1 0 0
                                    18 C    0 1 0   20 C    0 0 0   26 C    0 1 0
  34 C   24     4.3702     8.2585   39 C    0 0 0   39 C    1 0 0   40 C    0 0 0
                                    40 C    0 1 0   41 C    0 0 0   41 C    0 0-1
                                    43 C    0 0 0   43 C    0 0-1   45 C    0 0 0
                                    45 C    1 0 0   48 C    0 0 0   48 C    0 1 0
                                    51 C    0 0 0   51 C    0 1 0   52 C    0 0 0
                                    52 C    1 0 0   54 C    0 0 0   54 C    0 0-1
                                    56 C    0 0 0   56 C    0 0-1   58 C    0 0 0
                                    58 C    1 0 0   59 C    0 0 0   59 C    0 1 0

  35 C    4     1.5451     2.9198    3 C    1 1 0   15 C    0 1 0   25 C    1 0 0
                                    33 C    0 0 0
  35 C   12     2.5231     4.7680   34 C    0 0 0   36 C    1 1 0   38 C    0 0 0
                                    39 C    1 0 0   47 C    0 0 0   48 C    0 1 0
                                    50 C    0 0 0   51 C    0 1 0   57 C    0 0 0
                                    58 C    1 0 0   61 C    1 0 0   63 C    0 1 0
  35 C   12     2.9586     5.5910    6 C    1 0 0   14 C    0 0 0   16 C    1 1 0
                                    18 C    0 1 0   21 C    0 0 0   22 C    1 1 0
                                    26 C    1 1 0   28 C    0 0 0   29 C    1 0 0
                                    30 C    0 1 0   31 C    0 1 0   32 C    1 0 0
  35 C    6     3.5682     6.7430   54 C    0 0 0   54 C    0 0-1   62 C    0 0 0
                                    62 C    1 0 0   64 C    0 0 0   64 C    0 1 0
  35 C   12     3.8884     7.3480    1 C    0 0 0    4 C    1 1 0    5 C    0 0 0
                                     7 C    1 1 0    9 C    1 0 0   10 C    1 0 0
                                    11 C    0 1 0   12 C    0 1 0   13 C    1 0 0
                                    17 C    0 0 0   19 C    1 1 0   27 C    0 1 0
  35 C   24     4.3702     8.2585   37 C    0 0 0   37 C    0 1 0   40 C    1 1 0
                                    40 C    0 1 0   42 C    1 0 0   42 C    1 0-1
                                    44 C    0 1 0   44 C    0 1-1   45 C    1 0 0
                                    45 C    1 1 0   46 C    1 0 0   46 C    0 0 0
                                    49 C    0 0 0   49 C    1 0 0   52 C    1 1 0
                                    52 C    1 0 0   53 C    0 0-1   53 C    0 0 0
                                    55 C    1 1-1   55 C    1 1 0   59 C    0 1 0
                                    59 C    1 1 0   60 C    0 1 0   60 C    0 0 0

  38 C    4     1.5451     2.9198    5 C    0 0 0    6 C    1 0 0   32 C    1 0 0
                                    33 C    0 0 0
  38 C   12     2.5231     4.7680   34 C    0 0 0   35 C    0 0 0   37 C    0 0 0
                                    39 C    1 0 0   41 C    0 0 0   42 C    1 0 0
                                    50 C    0 0 0   52 C    1 0 0   53 C    0 0 0
                                    54 C    0 0 0   61 C    1 0 0   64 C    0 0 0
  38 C   12     2.9586     5.5910    1 C    0 0 0    3 C    1 1 0    9 C    1 0 1
                                    17 C    0 0 0   18 C    0 1 0   19 C    1 0 0
                                    20 C    1 0 0   21 C    0 0 1   25 C    1 0 0
                                    28 C    0 0 0   29 C    1 0 0   31 C    0 0 0
  38 C    6     3.5682     6.7430   49 C    0 0 0   49 C    1 0 0   51 C    0 0 0
                                    51 C    0 1 0   57 C    0 0 0   57 C    0 0 1
  38 C   12     3.8884     7.3480    4 C    1 0 0    7 C    1 1 0    8 C    0 0 0
                                    10 C    1 0 1   12 C    0 0 1   13 C    1 0 0
                                    14 C    0 0 0   15 C    0 1 0   16 C    1 0 0
                                    22 C    1 1 1   24 C    0 0 1   30 C    0 1 0
  38 C   24     4.3702     8.2585    2 C    0 0 0    2 C    1 0 0   36 C    1 0 0
                                    36 C    1 1 0   43 C    1 0 0   43 C    0 0 0
                                    44 C    0 0 0   44 C    0 1 0   45 C    1 0 0
                                    45 C    1 0 1   47 C    0 0 0   47 C    0 0 1
                                    55 C    1 0 0   55 C    1 1 0   56 C    0 0 0
                                    56 C    1 0 0   58 C    1 0 0   58 C    1 0 1
                                    60 C    0 0 0   60 C    0 0 1   62 C    0 0 0
                                    62 C    1 0 0   63 C    0 0 0   63 C    0 1 0

  54 C    4     1.5451     2.9198    6 C    1 0 0   18 C    0 1 0   21 C    0 0 1
                                    22 C    1 1 1
  54 C   12     2.5231     4.7680   38 C    0 0 0   39 C    1 0 0   42 C    1 0 0
                                    44 C    0 1 0   47 C    0 0 1   48 C    0 1 1
                                    50 C    0 0 0   51 C    0 1 0   53 C    0 0 0
                                    55 C    1 1 0   57 C    0 0 1   58 C    1 0 1
  54 C   12     2.9586     5.5910    3 C    1 1 0    5 C    0 0 0    7 C    1 1 0
                                     9 C    1 0 1   10 C    1 0 1   11 C    0 1 1
                                    12 C    0 1 1   15 C    0 1 1   17 C    0 0 0
                                    19 C    1 1 0   25 C    1 0 1   33 C    0 0 0
  54 C    6     3.5682     6.7430   35 C    0 0 0   35 C    0 0 1   41 C    0 0 0
                                    41 C    0 1 0   43 C    0 0 0   43 C    1 0 0
  54 C   12     3.8884     7.3480    8 C    0 1 0   14 C    0 0 1   16 C    1 1 1
                                    20 C    1 0 0   23 C    1 1 1   24 C    0 0 1
                                    26 C    1 1 1   28 C    0 0 1   29 C    1 0 0
                                    30 C    0 1 0   31 C    0 1 0   32 C    1 0 0
  54 C   24     4.3702     8.2585   34 C    0 0 0   34 C    0 0 1   36 C    1 1 0
                                    36 C    1 1 1   37 C    0 0 0   37 C    0 1 0
                                    40 C    1 1 0   40 C    0 1 0   45 C    1 0 1
                                    45 C    1 1 1   46 C    1 0 1   46 C    0 0 1
                                    49 C    0 0 0   49 C    1 0 0   52 C    1 1 0
                                    52 C    1 0 0   59 C    0 1 1   59 C    1 1 1
                                    60 C    0 1 1   60 C    0 0 1   61 C    1 0 1
                                    61 C    1 0 0   63 C    0 1 1   63 C    0 1 0

  56 C    4     1.5451     2.9198    8 C    0 0 0   20 C    0 0 0   23 C    0 0 1
                                    24 C    0 0 1
  56 C   12     2.5231     4.7680   37 C    0 0 0   40 C    0 0 0   42 C    0 0 0
                                    44 C    0 0 0   45 C    0 0 1   46 C    0 0 1
                                    49 C    0 0 0   52 C    0 0 0   53 C    0 0 0
                                    55 C    0 0 0   59 C    0 0 1   60 C    0 0 1
  56 C   12     2.9586     5.5910    1 C    0 0 0    4 C    0 0 0    5 C    0 0 0
                                     7 C    0 0 0    9 C    0 0 1   10 C    0 0 1
                                    11 C    0 0 1   12 C    0 0 1   13 C    0 0 1
                                    17 C    0 0 0   19 C    0 0 0   27 C    0 0 1
  56 C    6     3.5682     6.7430    2 C    0 0 0    2 C    0 0 1   41 C    0 0 0
                                    41 C   -1 0 0   43 C    0 0 0   43 C    0-1 0
  56 C   12     3.8884     7.3480    6 C    0 0 0   14 C    0 0 1   16 C    0 0 1
                                    18 C    0 0 0   21 C    0 0 1   22 C    0 0 1
                                    26 C    0 0 1   28 C    0 0 1   29 C    0 0 0
                                    30 C    0 0 0   31 C    0 0 0   32 C    0 0 0
  56 C   24     4.3702     8.2585   34 C    0 0 0   34 C    0 0 1   36 C    0 0 0
                                    36 C    0 0 1   38 C    0 0 0   38 C   -1 0 0
                                    39 C    0-1 0   39 C    0 0 0   47 C    0-1 1
                                    47 C    0 0 1   48 C    0 0 1   48 C   -1 0 1
                                    50 C    0 0 0   50 C    0-1 0   51 C   -1 0 0
                                    51 C    0 0 0   57 C   -1 0 1   57 C    0 0 1
                                    58 C    0 0 1   58 C    0-1 1   61 C    0 0 1
                                    61 C    0 0 0   63 C    0 0 1   63 C    0 0 0


 SYMMETRY ALLOWED INTERNAL DEGREE(S) OF FREEDOM:  10
 TTTTTTTTTTTTTTTTTTTTTTTTTTTTTT SYMM        TELAPSE        0.26 TCPU        0.23
 TTTTTTTTTTTTTTTTTTTTTTTTTTTTTT INT_SCREEN  TELAPSE        0.27 TCPU        0.23

 *******************************************************************************
 *                                                                             *
 *                                                                             *
 *         FFFFF  RRRR   EEEE   QQQ   U   U  EEEE  N   N   CCC  Y   Y          *
 *         F      R   R  E     Q   Q  U   U  E     NN  N  C      Y Y           *
 *         FFF    RRRR   EEEE  Q   Q  U   U  EEEE  N N N  C       Y            *
 *         F      R   R  E     Q  QQ  U   U  E     N  NN  C       Y            *
 *         F      R   R  EEEE   QQ Q   UUU   EEEE  N   N   CCC    Y            *
 *                                                                             *
 *                                                                             *
 * CALCULATION OF PHONON FREQUENCIES AT A SET OF K POINTS BY USING A SUPERCELL *
 * SCHEME. THE FOLLOWING SUPERCELL HAS BEEN USED:                              *
 *    -2.000     2.000     2.000                                               *
 *     2.000    -2.000     2.000                                               *
 *     2.000     2.000    -2.000                                               *
 * THAT PERMITS THE CALCULATION OF MODES AT    32 K POINTS                     *
 * INTENSITIES COMPUTED VIA THE BERRY PHASE APPROACH                           *
 *                                                                             *
 * REFERENCES TO BE QUOTED WHEN USING THIS MODULE:                             *
 *                                                                             *
 * F. Pascale, C.M. Zicovich-Wilson, F. Lopez, B. Civalleri                    *
 * R. Orlando, R. Dovesi                                                       *
 * The calculation of the vibration frequencies of crystalline                 *
 * compounds and its implementation in the CRYSTAL code                        *
 * J. Comput. Chem. 25 (2004) 888-897                                          *
 *                                                                             *
 * C.M. Zicovich-Wilson, F. Pascale, C. Roetti, V.R. Saunders,                 *
 * R. Orlando, R. Dovesi                                                       *
 * The calculation of the vibration frequencies of alpha-quartz:               *
 * the effect of hamiltonian and basis set                                     *
 * J. Comput. Chem. 25 (2004) 1873-1881                                        *
 *******************************************************************************



 ATOMS ISOTOPIC MASS (AMU) FOR FREQUENCY CALCULATION 

    1 C      12.0000    2 C      12.0000    3 C      12.0000    4 C      12.0000
    5 C      12.0000    6 C      12.0000    7 C      12.0000    8 C      12.0000
    9 C      12.0000   10 C      12.0000   11 C      12.0000   12 C      12.0000
   13 C      12.0000   14 C      12.0000   15 C      12.0000   16 C      12.0000
   17 C      12.0000   18 C      12.0000   19 C      12.0000   20 C      12.0000
   21 C      12.0000   22 C      12.0000   23 C      12.0000   24 C      12.0000
   25 C      12.0000   26 C      12.0000   27 C      12.0000   28 C      12.0000
   29 C      12.0000   30 C      12.0000   31 C      12.0000   32 C      12.0000
   33 C      12.0000   34 C      12.0000   35 C      12.0000   36 C      12.0000
   37 C      12.0000   38 C      12.0000   39 C      12.0000   40 C      12.0000
   41 C      12.0000   42 C      12.0000   43 C      12.0000   44 C      12.0000
   45 C      12.0000   46 C      12.0000   47 C      12.0000   48 C      12.0000
   49 C      12.0000   50 C      12.0000   51 C      12.0000   52 C      12.0000
   53 C      12.0000   54 C      12.0000   55 C      12.0000   56 C      12.0000
   57 C      12.0000   58 C      12.0000   59 C      12.0000   60 C      12.0000
   61 C      12.0000   62 C      12.0000   63 C      12.0000   64 C      12.0000
 *******************************************************************************
 *                                                                             *
 * LIST OF THE K POINTS USED FOF PHONON DISPERSION.                            *
 * IN THESE K POINTS THE DYNAMICAL MATRIX IS DIAGONALIZED                      *
 * AND THE RESULTING FREQUENCIES ARE USED FOR THERMODYNAMICS                   *
 *  K       WEIGHT       COORD                                                 *
 *      1         1.        0  0  0                                            *
 *      2         1.        2  1  3                                            *
 *      3         1.        4  2  6                                            *
 *      4         1.        6  3  9                                            *
 *      5         1.        8  4 12                                            *
 *      6         1.       10  5 15                                            *
 *      7         1.       12  6 18                                            *
 *      8         1.       14  7 21                                            *
 *      9         1.       16  8 24                                            *
 *     10         1.       18  9 27                                            *
 *     11         1.       20 10 30                                            *
 *     12         1.       22 11 33                                            *
 *     13         1.       24 12 36                                            *
 *     14         1.       26 13 39                                            *
 *     15         1.       28 14 42                                            *
 *     16         1.       30 15 45                                            *
 *     17         1.       32 16 48                                            *
 *     18         1.       34 17 51                                            *
 *     19         1.       36 18 54                                            *
 *     20         1.       38 19 57                                            *
 *     21         1.       40 20 60                                            *
 *     22         1.       42 21 63                                            *
 *     23         1.       44 22 66                                            *
 *     24         1.       46 23 69                                            *
 *     25         1.       48 24 72                                            *
 *     26         1.       50 25 75                                            *
 *     27         1.       52 26 78                                            *
 *     28         1.       54 27 81                                            *
 *     29         1.       56 28 84                                            *
 *     30         1.       58 29 87                                            *
 *     31         1.       60 30 90                                            *
 *     32         1.       62 31 93                                            *
 *     33         1.       64 32 96                                            *
 *     34         1.       66 33 99                                            *
 *     35         1.       68 34102                                            *
 *     36         1.       70 35105                                            *
 *     37         1.       72 36108                                            *
 *     38         1.       74 37111                                            *
 *     39         1.       76 38114                                            *
 *     40         1.       78 39117                                            *
 *     41         1.       80 40120                                            *
 *     42         1.       82 41123                                            *
 *     43         1.       84 42126                                            *
 *     44         1.       86 43129                                            *
 *     45         1.       88 44132                                            *
 *     46         1.       90 45135                                            *
 *     47         1.       92 46138                                            *
 *     48         1.       94 47141                                            *
 *     49         1.       96 48144                                            *
 *     50         1.       98 49147                                            *
 *     51         1.      100 50150                                            *
 *     52         1.      102 51153                                            *
 *     53         1.      104 52156                                            *
 *     54         1.      106 53159                                            *
 *     55         1.      108 54162                                            *
 *     56         1.      110 55165                                            *
 *     57         1.      112 56168                                            *
 *     58         1.      114 57171                                            *
 *     59         1.      116 58174                                            *
 *     60         1.      118 59177                                            *
 *     61         1.      118 59177                                            *
 *     62         1.      118 58176                                            *
 *     63         1.      118 57175                                            *
 *     64         1.      118 56174                                            *
 *     65         1.      118 55173                                            *
 *     66         1.      118 54172                                            *
 *     67         1.      118 53171                                            *
 *     68         1.      118 52170                                            *
 *     69         1.      118 51169                                            *
 *     70         1.      118 50168                                            *
 *     71         1.      118 49167                                            *
 *     72         1.      118 48166                                            *
 *     73         1.      118 47165                                            *
 *     74         1.      118 46164                                            *
 *     75         1.      118 45163                                            *
 *     76         1.      118 44162                                            *
 *     77         1.      118 43161                                            *
 *     78         1.      118 42160                                            *
 *     79         1.      118 41159                                            *
 *     80         1.      118 40158                                            *
 *     81         1.      118 39157                                            *
 *     82         1.      118 38156                                            *
 *     83         1.      118 37155                                            *
 *     84         1.      118 36154                                            *
 *     85         1.      118 35153                                            *
 *     86         1.      118 34152                                            *
 *     87         1.      118 33151                                            *
 *     88         1.      118 32150                                            *
 *     89         1.      118 31149                                            *
 *     90         1.      118 30148                                            *
 *     91         1.      118 29147                                            *
 *     92         1.      118 28146                                            *
 *     93         1.      118 27145                                            *
 *     94         1.      118 26144                                            *
 *     95         1.      118 25143                                            *
 *     96         1.      118 24142                                            *
 *     97         1.      118 23141                                            *
 *     98         1.      118 22140                                            *
 *     99         1.      118 21139                                            *
 *    100         1.      118 20138                                            *
 *    101         1.      118 19137                                            *
 *    102         1.      118 18136                                            *
 *    103         1.      118 17135                                            *
 *    104         1.      118 16134                                            *
 *    105         1.      118 15133                                            *
 *    106         1.      118 14132                                            *
 *    107         1.      118 13131                                            *
 *    108         1.      118 12130                                            *
 *    109         1.      118 11129                                            *
 *    110         1.      118 10128                                            *
 *    111         1.      118  9127                                            *
 *    112         1.      118  8126                                            *
 *    113         1.      118  7125                                            *
 *    114         1.      118  6124                                            *
 *    115         1.      118  5123                                            *
 *    116         1.      118  4122                                            *
 *    117         1.      118  3121                                            *
 *    118         1.      118  2120                                            *
 *    119         1.      118  1119                                            *
 *    120         1.      118  0118                                            *
 *    121         1.      118  0118                                            *
 *    122         1.      116  0116                                            *
 *    123         1.      114  0114                                            *
 *    124         1.      112  0112                                            *
 *    125         1.      110  0110                                            *
 *    126         1.      108  0108                                            *
 *    127         1.      106  0106                                            *
 *    128         1.      104  0104                                            *
 *    129         1.      102  0102                                            *
 *    130         1.      100  0100                                            *
 *    131         1.       98  0 98                                            *
 *    132         1.       96  0 96                                            *
 *    133         1.       94  0 94                                            *
 *    134         1.       92  0 92                                            *
 *    135         1.       90  0 90                                            *
 *    136         1.       88  0 88                                            *
 *    137         1.       86  0 86                                            *
 *    138         1.       84  0 84                                            *
 *    139         1.       82  0 82                                            *
 *    140         1.       80  0 80                                            *
 *    141         1.       78  0 78                                            *
 *    142         1.       76  0 76                                            *
 *    143         1.       74  0 74                                            *
 *    144         1.       72  0 72                                            *
 *    145         1.       70  0 70                                            *
 *    146         1.       68  0 68                                            *
 *    147         1.       66  0 66                                            *
 *    148         1.       64  0 64                                            *
 *    149         1.       62  0 62                                            *
 *    150         1.       60  0 60                                            *
 *    151         1.       58  0 58                                            *
 *    152         1.       56  0 56                                            *
 *    153         1.       54  0 54                                            *
 *    154         1.       52  0 52                                            *
 *    155         1.       50  0 50                                            *
 *    156         1.       48  0 48                                            *
 *    157         1.       46  0 46                                            *
 *    158         1.       44  0 44                                            *
 *    159         1.       42  0 42                                            *
 *    160         1.       40  0 40                                            *
 *    161         1.       38  0 38                                            *
 *    162         1.       36  0 36                                            *
 *    163         1.       34  0 34                                            *
 *    164         1.       32  0 32                                            *
 *    165         1.       30  0 30                                            *
 *    166         1.       28  0 28                                            *
 *    167         1.       26  0 26                                            *
 *    168         1.       24  0 24                                            *
 *    169         1.       22  0 22                                            *
 *    170         1.       20  0 20                                            *
 *    171         1.       18  0 18                                            *
 *    172         1.       16  0 16                                            *
 *    173         1.       14  0 14                                            *
 *    174         1.       12  0 12                                            *
 *    175         1.       10  0 10                                            *
 *    176         1.        8  0  8                                            *
 *    177         1.        6  0  6                                            *
 *    178         1.        4  0  4                                            *
 *    179         1.        2  0  2                                            *
 *    180         1.        0  0  0                                            *
 *    181         1.        0  0  0                                            *
 *    182         1.        2  2  2                                            *
 *    183         1.        4  4  4                                            *
 *    184         1.        6  6  6                                            *
 *    185         1.        8  8  8                                            *
 *    186         1.       10 10 10                                            *
 *    187         1.       12 12 12                                            *
 *    188         1.       14 14 14                                            *
 *    189         1.       16 16 16                                            *
 *    190         1.       18 18 18                                            *
 *    191         1.       20 20 20                                            *
 *    192         1.       22 22 22                                            *
 *    193         1.       24 24 24                                            *
 *    194         1.       26 26 26                                            *
 *    195         1.       28 28 28                                            *
 *    196         1.       30 30 30                                            *
 *    197         1.       32 32 32                                            *
 *    198         1.       34 34 34                                            *
 *    199         1.       36 36 36                                            *
 *    200         1.       38 38 38                                            *
 *    201         1.       40 40 40                                            *
 *    202         1.       42 42 42                                            *
 *    203         1.       44 44 44                                            *
 *    204         1.       46 46 46                                            *
 *    205         1.       48 48 48                                            *
 *    206         1.       50 50 50                                            *
 *    207         1.       52 52 52                                            *
[...]
    6-   6    0.3497E-04   1297.9495   38.9115  (  1)


  DISPERSION K POINT NUMBER   207 COORD:  C(  52  52  52 )    WEIGHT:    1.

    MODES         EIGV          FREQUENCIES     IRREP
             (HARTREE**2)   (CM**-1)     (THZ)
    1-   1    0.3204E-05    392.8717   11.7780  (  1)
    2-   2    0.3204E-05    392.8717   11.7780  (  1)
    3-   3    0.8399E-05    636.0439   19.0681  (  1)
    4-   4    0.3273E-04   1255.5717   37.6411  (  1)
    5-   5    0.3273E-04   1255.5717   37.6411  (  1)
    6-   6    0.3499E-04   1298.2160   38.9195  (  1)


  DISPERSION K POINT NUMBER   208 COORD:  C(  54  54  54 )    WEIGHT:    1.

    MODES         EIGV          FREQUENCIES     IRREP
             (HARTREE**2)   (CM**-1)     (THZ)
    1-   1    0.3394E-05    404.3505   12.1221  (  1)
    2-   2    0.3394E-05    404.3505   12.1221  (  1)
    3-   3    0.8903E-05    654.8661   19.6324  (  1)
    4-   4    0.3256E-04   1252.3403   37.5442  (  1)
    5-   5    0.3256E-04   1252.3403   37.5442  (  1)
    6-   6    0.3501E-04   1298.5575   38.9298  (  1)


  DISPERSION K POINT NUMBER   209 COORD:  C(  56  56  56 )    WEIGHT:    1.

    MODES         EIGV          FREQUENCIES     IRREP
             (HARTREE**2)   (CM**-1)     (THZ)
    1-   1    0.3582E-05    415.3913   12.4531  (  1)
    2-   2    0.3582E-05    415.3913   12.4531  (  1)
    3-   3    0.9412E-05    673.3183   20.1856  (  1)
    4-   4    0.3239E-04   1249.1698   37.4492  (  1)
    5-   5    0.3239E-04   1249.1698   37.4492  (  1)
    6-   6    0.3503E-04   1298.9581   38.9418  (  1)


  DISPERSION K POINT NUMBER   210 COORD:  C(  58  58  58 )    WEIGHT:    1.

    MODES         EIGV          FREQUENCIES     IRREP
             (HARTREE**2)   (CM**-1)     (THZ)
    1-   1    0.3767E-05    425.9829   12.7706  (  1)
    2-   2    0.3767E-05    425.9829   12.7706  (  1)
    3-   3    0.9925E-05    691.4217   20.7283  (  1)
    4-   4    0.3223E-04   1246.0790   37.3565  (  1)
    5-   5    0.3223E-04   1246.0790   37.3565  (  1)
    6-   6    0.3505E-04   1299.3991   38.9550  (  1)


  DISPERSION K POINT NUMBER   211 COORD:  C(  60  60  60 )    WEIGHT:    1.

    MODES         EIGV          FREQUENCIES     IRREP
             (HARTREE**2)   (CM**-1)     (THZ)
    1-   1    0.3949E-05    436.1165   13.0744  (  1)
    2-   2    0.3949E-05    436.1165   13.0744  (  1)
    3-   3    0.1044E-04    709.1968   21.2612  (  1)
    4-   4    0.3208E-04   1243.0856   37.2668  (  1)
    5-   5    0.3208E-04   1243.0856   37.2668  (  1)
    6-   6    0.3508E-04   1299.8599   38.9688  (  1)


  DISPERSION K POINT NUMBER   212 COORD:  C(  62  62  62 )    WEIGHT:    1.

    MODES         EIGV          FREQUENCIES     IRREP
             (HARTREE**2)   (CM**-1)     (THZ)
    1-   1    0.4126E-05    445.7858   13.3643  (  1)
    2-   2    0.4126E-05    445.7858   13.3643  (  1)
    3-   3    0.1096E-04    726.6633   21.7848  (  1)
    4-   4    0.3193E-04   1240.2063   37.1805  (  1)
    5-   5    0.3193E-04   1240.2063   37.1805  (  1)
    6-   6    0.3510E-04   1300.3180   38.9826  (  1)


  DISPERSION K POINT NUMBER   213 COORD:  C(  64  64  64 )    WEIGHT:    1.

    MODES         EIGV          FREQUENCIES     IRREP
             (HARTREE**2)   (CM**-1)     (THZ)
    1-   1    0.4298E-05    454.9870   13.6402  (  1)
    2-   2    0.4298E-05    454.9870   13.6402  (  1)
    3-   3    0.1149E-04    743.8398   22.2998  (  1)
    4-   4    0.3179E-04   1237.4559   37.0980  (  1)
    5-   5    0.3179E-04   1237.4559   37.0980  (  1)
    6-   6    0.3513E-04   1300.7495   38.9955  (  1)


  DISPERSION K POINT NUMBER   214 COORD:  C(  66  66  66 )    WEIGHT:    1.

    MODES         EIGV          FREQUENCIES     IRREP
             (HARTREE**2)   (CM**-1)     (THZ)
    1-   1    0.4464E-05    463.7190   13.9019  (  1)
    2-   2    0.4464E-05    463.7190   13.9019  (  1)
    3-   3    0.1201E-04    760.7426   22.8065  (  1)
    4-   4    0.3166E-04   1234.8474   37.0198  (  1)
    5-   5    0.3166E-04   1234.8474   37.0198  (  1)
    6-   6    0.3515E-04   1301.1297   39.0069  (  1)


  DISPERSION K POINT NUMBER   215 COORD:  C(  68  68  68 )    WEIGHT:    1.

    MODES         EIGV          FREQUENCIES     IRREP
             (HARTREE**2)   (CM**-1)     (THZ)
    1-   1    0.4625E-05    471.9833   14.1497  (  1)
    2-   2    0.4625E-05    471.9833   14.1497  (  1)
    3-   3    0.1255E-04    777.3857   23.3054  (  1)
    4-   4    0.3153E-04   1232.3918   36.9462  (  1)
    5-   5    0.3153E-04   1232.3918   36.9462  (  1)
    6-   6    0.3516E-04   1301.4334   39.0160  (  1)


  DISPERSION K POINT NUMBER   216 COORD:  C(  70  70  70 )    WEIGHT:    1.

    MODES         EIGV          FREQUENCIES     IRREP
             (HARTREE**2)   (CM**-1)     (THZ)
    1-   1    0.4779E-05    479.7841   14.3836  (  1)
    2-   2    0.4779E-05    479.7841   14.3836  (  1)
    3-   3    0.1308E-04    793.7800   23.7969  (  1)
    4-   4    0.3141E-04   1230.0977   36.8774  (  1)
    5-   5    0.3141E-04   1230.0977   36.8774  (  1)
    6-   6    0.3517E-04   1301.6354   39.0220  (  1)


  DISPERSION K POINT NUMBER   217 COORD:  C(  72  72  72 )    WEIGHT:    1.

    MODES         EIGV          FREQUENCIES     IRREP
             (HARTREE**2)   (CM**-1)     (THZ)
    1-   1    0.4926E-05    487.1279   14.6037  (  1)
    2-   2    0.4926E-05    487.1279   14.6037  (  1)
    3-   3    0.1362E-04    809.9331   24.2812  (  1)
    4-   4    0.3130E-04   1227.9714   36.8137  (  1)
    5-   5    0.3130E-04   1227.9714   36.8137  (  1)
    6-   6    0.3518E-04   1301.7110   39.0243  (  1)


  DISPERSION K POINT NUMBER   218 COORD:  C(  74  74  74 )    WEIGHT:    1.

    MODES         EIGV          FREQUENCIES     IRREP
             (HARTREE**2)   (CM**-1)     (THZ)
    1-   1    0.5067E-05    494.0236   14.8105  (  1)
    2-   2    0.5067E-05    494.0236   14.8105  (  1)
    3-   3    0.1416E-04    825.8489   24.7583  (  1)
    4-   4    0.3120E-04   1226.0167   36.7551  (  1)
    5-   5    0.3120E-04   1226.0167   36.7551  (  1)
    6-   6    0.3517E-04   1301.6365   39.0221  (  1)


  DISPERSION K POINT NUMBER   219 COORD:  C(  76  76  76 )    WEIGHT:    1.

    MODES         EIGV          FREQUENCIES     IRREP
             (HARTREE**2)   (CM**-1)     (THZ)
    1-   1    0.5200E-05    500.4820   15.0041  (  1)
    2-   2    0.5200E-05    500.4820   15.0041  (  1)
    3-   3    0.1470E-04    841.5272   25.2284  (  1)
    4-   4    0.3111E-04   1224.2349   36.7016  (  1)
    5-   5    0.3111E-04   1224.2349   36.7016  (  1)
    6-   6    0.3516E-04   1301.3899   39.0147  (  1)


  DISPERSION K POINT NUMBER   220 COORD:  C(  78  78  78 )    WEIGHT:    1.

    MODES         EIGV          FREQUENCIES     IRREP
             (HARTREE**2)   (CM**-1)     (THZ)
    1-   1    0.5326E-05    506.5157   15.1850  (  1)
    2-   2    0.5326E-05    506.5157   15.1850  (  1)
    3-   3    0.1525E-04    856.9636   25.6911  (  1)
    4-   4    0.3103E-04   1222.6251   36.6534  (  1)
    5-   5    0.3103E-04   1222.6251   36.6534  (  1)
    6-   6    0.3514E-04   1300.9509   39.0015  (  1)


  DISPERSION K POINT NUMBER   221 COORD:  C(  80  80  80 )    WEIGHT:    1.

    MODES         EIGV          FREQUENCIES     IRREP
             (HARTREE**2)   (CM**-1)     (THZ)
    1-   1    0.5445E-05    512.1386   15.3535  (  1)
    2-   2    0.5445E-05    512.1386   15.3535  (  1)
    3-   3    0.1579E-04    872.1492   26.1464  (  1)
    4-   4    0.3096E-04   1221.1841   36.6102  (  1)
    5-   5    0.3096E-04   1221.1841   36.6102  (  1)
    6-   6    0.3510E-04   1300.3019   38.9821  (  1)


  DISPERSION K POINT NUMBER   222 COORD:  C(  82  82  82 )    WEIGHT:    1.

    MODES         EIGV          FREQUENCIES     IRREP
             (HARTREE**2)   (CM**-1)     (THZ)
    1-   1    0.5557E-05    517.3657   15.5102  (  1)
    2-   2    0.5557E-05    517.3657   15.5102  (  1)
    3-   3    0.1634E-04    887.0702   26.5937  (  1)
    4-   4    0.3089E-04   1219.9066   36.5719  (  1)
    5-   5    0.3089E-04   1219.9066   36.5719  (  1)
    6-   6    0.3505E-04   1299.4282   38.9559  (  1)


  DISPERSION K POINT NUMBER   223 COORD:  C(  84  84  84 )    WEIGHT:    1.

    MODES         EIGV          FREQUENCIES     IRREP
             (HARTREE**2)   (CM**-1)     (THZ)
    1-   1    0.5661E-05    522.2124   15.6555  (  1)
    2-   2    0.5661E-05    522.2124   15.6555  (  1)
    3-   3    0.1688E-04    901.7079   27.0325  (  1)
    4-   4    0.3084E-04   1218.7854   36.5383  (  1)
    5-   5    0.3084E-04   1218.7854   36.5383  (  1)
    6-   6    0.3499E-04   1298.3186   38.9226  (  1)


  DISPERSION K POINT NUMBER   224 COORD:  C(  86  86  86 )    WEIGHT:    1.

    MODES         EIGV          FREQUENCIES     IRREP
             (HARTREE**2)   (CM**-1)     (THZ)
    1-   1    0.5759E-05    526.6948   15.7899  (  1)
    2-   2    0.5759E-05    526.6948   15.7899  (  1)
    3-   3    0.1742E-04    916.0386   27.4621  (  1)
    4-   4    0.3079E-04   1217.8120   36.5091  (  1)
    5-   5    0.3079E-04   1217.8120   36.5091  (  1)
    6-   6    0.3492E-04   1296.9661   38.8821  (  1)


  DISPERSION K POINT NUMBER   225 COORD:  C(  88  88  88 )    WEIGHT:    1.

    MODES         EIGV          FREQUENCIES     IRREP
             (HARTREE**2)   (CM**-1)     (THZ)
    1-   1    0.5850E-05    530.8283   15.9138  (  1)
    2-   2    0.5850E-05    530.8283   15.9138  (  1)
    3-   3    0.1796E-04    930.0329   27.8817  (  1)
    4-   4    0.3075E-04   1216.9764   36.4840  (  1)
    5-   5    0.3075E-04   1216.9764   36.4840  (  1)
    6-   6    0.3484E-04   1295.3684   38.8342  (  1)


  DISPERSION K POINT NUMBER   226 COORD:  C(  90  90  90 )    WEIGHT:    1.

    MODES         EIGV          FREQUENCIES     IRREP
             (HARTREE**2)   (CM**-1)     (THZ)
    1-   1    0.5934E-05    534.6283   16.0278  (  1)
    2-   2    0.5934E-05    534.6283   16.0278  (  1)
    3-   3    0.1849E-04    943.6559   28.2901  (  1)
    4-   4    0.3071E-04   1216.2678   36.4628  (  1)
    5-   5    0.3071E-04   1216.2678   36.4628  (  1)
    6-   6    0.3474E-04   1293.5286   38.7790  (  1)


  DISPERSION K POINT NUMBER   227 COORD:  C(  92  92  92 )    WEIGHT:    1.

    MODES         EIGV          FREQUENCIES     IRREP
             (HARTREE**2)   (CM**-1)     (THZ)
    1-   1    0.6011E-05    538.1093   16.1321  (  1)
    2-   2    0.6011E-05    538.1093   16.1321  (  1)
    3-   3    0.1901E-04    956.8663   28.6861  (  1)
    4-   4    0.3068E-04   1215.6747   36.4450  (  1)
    5-   5    0.3068E-04   1215.6747   36.4450  (  1)
    6-   6    0.3463E-04   1291.4561   38.7169  (  1)


  DISPERSION K POINT NUMBER   228 COORD:  C(  94  94  94 )    WEIGHT:    1.

    MODES         EIGV          FREQUENCIES     IRREP
             (HARTREE**2)   (CM**-1)     (THZ)
    1-   1    0.6083E-05    541.2848   16.2273  (  1)
    2-   2    0.6083E-05    541.2848   16.2273  (  1)
    3-   3    0.1952E-04    969.6161   29.0684  (  1)
    4-   4    0.3066E-04   1215.1851   36.4303  (  1)
    5-   5    0.3066E-04   1215.1851   36.4303  (  1)
    6-   6    0.3450E-04   1289.1673   38.6483  (  1)


  DISPERSION K POINT NUMBER   229 COORD:  C(  96  96  96 )    WEIGHT:    1.

    MODES         EIGV          FREQUENCIES     IRREP
             (HARTREE**2)   (CM**-1)     (THZ)
    1-   1    0.6147E-05    544.1671   16.3137  (  1)
    2-   2    0.6147E-05    544.1671   16.3137  (  1)
    3-   3    0.2001E-04    981.8502   29.4351  (  1)
    4-   4    0.3064E-04   1214.7871   36.4184  (  1)
    5-   5    0.3064E-04   1214.7871   36.4184  (  1)
    6-   6    0.3437E-04   1286.6869   38.5739  (  1)


  DISPERSION K POINT NUMBER   230 COORD:  C(  98  98  98 )    WEIGHT:    1.

    MODES         EIGV          FREQUENCIES     IRREP
             (HARTREE**2)   (CM**-1)     (THZ)
    1-   1    0.6206E-05    546.7673   16.3917  (  1)
    2-   2    0.6206E-05    546.7673   16.3917  (  1)
    3-   3    0.2049E-04    993.5050   29.7845  (  1)
    4-   4    0.3062E-04   1214.4689   36.4089  (  1)
    5-   5    0.3062E-04   1214.4689   36.4089  (  1)
    6-   6    0.3423E-04   1284.0484   38.4948  (  1)


  DISPERSION K POINT NUMBER   231 COORD:  C( 100 100 100 )    WEIGHT:    1.

    MODES         EIGV          FREQUENCIES     IRREP
             (HARTREE**2)   (CM**-1)     (THZ)
    1-   1    0.6259E-05    549.0953   16.4615  (  1)
    2-   2    0.6259E-05    549.0953   16.4615  (  1)
    3-   3    0.2095E-04   1004.5084   30.1144  (  1)
    4-   4    0.3061E-04   1214.2191   36.4014  (  1)
    5-   5    0.3061E-04   1214.2191   36.4014  (  1)
    6-   6    0.3408E-04   1281.2960   38.4123  (  1)


  DISPERSION K POINT NUMBER   232 COORD:  C( 102 102 102 )    WEIGHT:    1.

    MODES         EIGV          FREQUENCIES     IRREP
             (HARTREE**2)   (CM**-1)     (THZ)
    1-   1    0.6306E-05    551.1593   16.5233  (  1)
    2-   2    0.6306E-05    551.1593   16.5233  (  1)
    3-   3    0.2138E-04   1014.7787   30.4223  (  1)
    4-   4    0.3060E-04   1214.0269   36.3956  (  1)
    5-   5    0.3060E-04   1214.0269   36.3956  (  1)
    6-   6    0.3393E-04   1278.4848   38.3280  (  1)


  DISPERSION K POINT NUMBER   233 COORD:  C( 104 104 104 )    WEIGHT:    1.

    MODES         EIGV          FREQUENCIES     IRREP
             (HARTREE**2)   (CM**-1)     (THZ)
    1-   1    0.6348E-05    552.9665   16.5775  (  1)
    2-   2    0.6348E-05    552.9665   16.5775  (  1)
    3-   3    0.2178E-04   1024.2245   30.7055  (  1)
    4-   4    0.3059E-04   1213.8822   36.3913  (  1)
    5-   5    0.3059E-04   1213.8822   36.3913  (  1)
    6-   6    0.3378E-04   1275.6817   38.2440  (  1)


  DISPERSION K POINT NUMBER   234 COORD:  C( 106 106 106 )    WEIGHT:    1.

    MODES         EIGV          FREQUENCIES     IRREP
             (HARTREE**2)   (CM**-1)     (THZ)
    1-   1    0.6384E-05    554.5227   16.6242  (  1)
    2-   2    0.6384E-05    554.5227   16.6242  (  1)
    3-   3    0.2214E-04   1032.7448   30.9609  (  1)
    4-   4    0.3059E-04   1213.7761   36.3881  (  1)
    5-   5    0.3059E-04   1213.7761   36.3881  (  1)
    6-   6    0.3364E-04   1272.9656   38.1625  (  1)


  DISPERSION K POINT NUMBER   235 COORD:  C( 108 108 108 )    WEIGHT:    1.

    MODES         EIGV          FREQUENCIES     IRREP
             (HARTREE**2)   (CM**-1)     (THZ)
    1-   1    0.6414E-05    555.8326   16.6634  (  1)
    2-   2    0.6414E-05    555.8326   16.6634  (  1)
    3-   3    0.2246E-04   1040.2307   31.1853  (  1)
    4-   4    0.3058E-04   1213.7003   36.3858  (  1)
    5-   5    0.3058E-04   1213.7003   36.3858  (  1)
    6-   6    0.3351E-04   1270.4256   38.0864  (  1)


  DISPERSION K POINT NUMBER   236 COORD:  C( 110 110 110 )    WEIGHT:    1.

    MODES         EIGV          FREQUENCIES     IRREP
             (HARTREE**2)   (CM**-1)     (THZ)
    1-   1    0.6439E-05    556.8998   16.6954  (  1)
    2-   2    0.6439E-05    556.8998   16.6954  (  1)
    3-   3    0.2274E-04   1046.5686   31.3753  (  1)
    4-   4    0.3058E-04   1213.6480   36.3843  (  1)
    5-   5    0.3058E-04   1213.6480   36.3843  (  1)
    6-   6    0.3339E-04   1268.1581   38.0184  (  1)


  DISPERSION K POINT NUMBER   237 COORD:  C( 112 112 112 )    WEIGHT:    1.

    MODES         EIGV          FREQUENCIES     IRREP
             (HARTREE**2)   (CM**-1)     (THZ)
    1-   1    0.6458E-05    557.7273   16.7202  (  1)
    2-   2    0.6458E-05    557.7273   16.7202  (  1)
    3-   3    0.2296E-04   1051.6462   31.5276  (  1)
    4-   4    0.3058E-04   1213.6134   36.3832  (  1)
    5-   5    0.3058E-04   1213.6134   36.3832  (  1)
    6-   6    0.3329E-04   1266.2614   37.9616  (  1)


  DISPERSION K POINT NUMBER   238 COORD:  C( 114 114 114 )    WEIGHT:    1.

    MODES         EIGV          FREQUENCIES     IRREP
             (HARTREE**2)   (CM**-1)     (THZ)
    1-   1    0.6471E-05    558.3170   16.7379  (  1)
    2-   2    0.6471E-05    558.3170   16.7379  (  1)
    3-   3    0.2312E-04   1055.3600   31.6389  (  1)
    4-   4    0.3058E-04   1213.5920   36.3826  (  1)
    5-   5    0.3058E-04   1213.5920   36.3826  (  1)
    6-   6    0.3321E-04   1264.8277   37.9186  (  1)


  DISPERSION K POINT NUMBER   239 COORD:  C( 116 116 116 )    WEIGHT:    1.

    MODES         EIGV          FREQUENCIES     IRREP
             (HARTREE**2)   (CM**-1)     (THZ)
    1-   1    0.6480E-05    558.6703   16.7485  (  1)
    2-   2    0.6480E-05    558.6703   16.7485  (  1)
    3-   3    0.2322E-04   1057.6256   31.7068  (  1)
    4-   4    0.3058E-04   1213.5804   36.3822  (  1)
    5-   5    0.3058E-04   1213.5804   36.3822  (  1)
    6-   6    0.3316E-04   1263.9334   37.8918  (  1)


  DISPERSION K POINT NUMBER   240 COORD:  R( 118 118 118 )    WEIGHT:    1.

    MODES         EIGV          FREQUENCIES     IRREP
             (HARTREE**2)   (CM**-1)     (THZ)
    1-   1    0.6482E-05    558.7879   16.7520  (  1)
    2-   2    0.6482E-05    558.7879   16.7520  (  1)
    3-   3    0.2326E-04   1058.3873   31.7297  (  1)
    4-   4    0.3057E-04   1213.5768   36.3821  (  1)
    5-   5    0.3057E-04   1213.5768   36.3821  (  1)
    6-   6    0.3315E-04   1263.6294   37.8827  (  1)

  354 DATA WRITTEN ON UNIT 25 WITH THE FOLLOWING HEADER :
 -%-0BAND      0    0    0    2    2    2
 TTTTTTTTTTTTTTTTTTTTTTTTTTTTTT END         TELAPSE        0.56 TCPU        0.50
 EEEEEEEEEE TERMINATION  DATE 09 09 2024 TIME 17:37:35.3
NODE    0 CPU TIME =         0.504
    TOTAL CPU TIME =         0.504
================================================================================
Time: Mon 09 Sep 2024 05:37:35 PM CEST
Job terminated
================================================================================
Contents of temporary directory in master node node80:
total 294428
-rw-r--r-- 1 erba users         0 Sep  9 17:37 dffit3.dat
-rw-r--r-- 1 erba users         0 Sep  9 17:37 diis_err1.pe0
-rw-r--r-- 1 erba users         0 Sep  9 17:37 diis_err2.pe0
-rw-r--r-- 1 erba users         0 Sep  9 17:37 diis_Fg
-rw-r--r-- 1 erba users         0 Sep  9 17:37 diis_Sk.pe0
-rw-r--r-- 1 erba users         0 Sep  9 17:37 fort.10.pe0
-rw-r--r-- 1 erba users         0 Sep  9 17:37 fort.11.pe0
-rw-r--r-- 1 erba users         0 Sep  9 17:37 fort.12
-rw-r--r-- 1 erba users         0 Sep  9 17:37 fort.18.pe0
-rw-r--r-- 1 erba users     89784 Sep  9 17:37 fort.19.pe0
-rw-r--r-- 1 erba users         0 Sep  9 17:37 fort.1.pe0
-rw-r--r-- 1 erba users         0 Sep  9 17:37 fort.20
-rw-r--r-- 1 erba users     17745 Sep  9 17:37 fort.25
-rw-r--r-- 1 erba users         0 Sep  9 17:37 fort.28
-rw-r--r-- 1 erba users         0 Sep  9 17:37 fort.28.pe0
-rw-r--r-- 1 erba users         0 Sep  9 17:37 fort.29
-rw-r--r-- 1 erba users         0 Sep  9 17:37 fort.29.pe0
-rw-r--r-- 1 erba users         0 Sep  9 17:37 fort.38.pe0
-rw-r--r-- 1 erba users         0 Sep  9 17:37 fort.3.pe0
-rw-r--r-- 1 erba users         0 Sep  9 17:37 fort.40.pe0
-rw-r--r-- 1 erba users    660784 Sep  9 17:37 fort.61.pe0
-rw-r--r-- 1 erba users    880448 Sep  9 17:37 fort.62.pe0
-rw-r--r-- 1 erba users         0 Sep  9 17:37 fort.82.pe0
-rw-r--r-- 1 erba users         0 Sep  9 17:37 fort.83.pe0
-rw-r--r-- 1 erba users         0 Sep  9 17:37 fort.8.pe0
-rw-r--r-- 1 erba users         0 Sep  9 17:37 fort.9
-rw-r--r-- 1 erba users         0 Sep  9 17:37 fort.95.pe0
-rw-r--r-- 1 erba users   2543492 Sep  9 17:37 FREQINFO.DAT
-rw-r--r-- 1 erba users       872 Sep  9 17:37 INPUT
-rwxr-xr-x 1 erba users 297262576 Sep  9 17:37 Pcrystal-475029
-rw-r--r-- 1 erba users     22596 Sep  9 17:37 PHONBANDS.DAT
-rw-r--r-- 1 erba users         0 Sep  9 17:37 PHONONS.DAT
-rw-r--r-- 1 erba users      2320 Sep  9 17:37 SCFOUT.LOG
================================================================================
Copying output file back on run directory...
================================================================================
Removing temporary directory /scratch/tmp_p20229_erba from each node...
Job terminated
